
---------- Begin Simulation Statistics ----------
sim_seconds                                  0.000146                       # Number of seconds simulated
sim_ticks                                   146027000                       # Number of ticks simulated
final_tick                                  146027000                       # Number of ticks from beginning of simulation (restored from checkpoints and never reset)
sim_freq                                 1000000000000                       # Frequency of simulated ticks
host_inst_rate                                  67845                       # Simulator instruction rate (inst/s)
host_op_rate                                   122476                       # Simulator op (including micro ops) rate (op/s)
host_tick_rate                             1733968110                       # Simulator tick rate (ticks/s)
host_mem_usage                                 657908                       # Number of bytes of host memory used
host_seconds                                     0.08                       # Real time elapsed on the host
sim_insts                                        5712                       # Number of instructions simulated
sim_ops                                         10313                       # Number of ops (including micro ops) simulated
system.voltage_domain.voltage                       1                       # Voltage in Volts
system.clk_domain.clock                          1000                       # Clock period in ticks
system.mem_ctrls.pwrStateResidencyTicks::UNDEFINED    146027000                       # Cumulative time (in ticks) in various power states
system.mem_ctrls.bytes_read::cpu.inst           14656                       # Number of bytes read from this memory
system.mem_ctrls.bytes_read::cpu.data            8640                       # Number of bytes read from this memory
system.mem_ctrls.bytes_read::total              23296                       # Number of bytes read from this memory
system.mem_ctrls.bytes_inst_read::cpu.inst        14656                       # Number of instructions bytes read from this memory
system.mem_ctrls.bytes_inst_read::total         14656                       # Number of instructions bytes read from this memory
system.mem_ctrls.bytes_written::writebacks         8192                       # Number of bytes written to this memory
system.mem_ctrls.bytes_written::total            8192                       # Number of bytes written to this memory
system.mem_ctrls.num_reads::cpu.inst              229                       # Number of read requests responded to by this memory
system.mem_ctrls.num_reads::cpu.data              135                       # Number of read requests responded to by this memory
system.mem_ctrls.num_reads::total                 364                       # Number of read requests responded to by this memory
system.mem_ctrls.num_writes::writebacks           128                       # Number of write requests responded to by this memory
system.mem_ctrls.num_writes::total                128                       # Number of write requests responded to by this memory
system.mem_ctrls.bw_read::cpu.inst          100365001                       # Total read bandwidth from this memory (bytes/s)
system.mem_ctrls.bw_read::cpu.data           59167140                       # Total read bandwidth from this memory (bytes/s)
system.mem_ctrls.bw_read::total             159532141                       # Total read bandwidth from this memory (bytes/s)
system.mem_ctrls.bw_inst_read::cpu.inst     100365001                       # Instruction read bandwidth from this memory (bytes/s)
system.mem_ctrls.bw_inst_read::total        100365001                       # Instruction read bandwidth from this memory (bytes/s)
system.mem_ctrls.bw_write::writebacks        56099215                       # Write bandwidth from this memory (bytes/s)
system.mem_ctrls.bw_write::total             56099215                       # Write bandwidth from this memory (bytes/s)
system.mem_ctrls.bw_total::writebacks        56099215                       # Total bandwidth to/from this memory (bytes/s)
system.mem_ctrls.bw_total::cpu.inst         100365001                       # Total bandwidth to/from this memory (bytes/s)
system.mem_ctrls.bw_total::cpu.data          59167140                       # Total bandwidth to/from this memory (bytes/s)
system.mem_ctrls.bw_total::total            215631356                       # Total bandwidth to/from this memory (bytes/s)
system.pwrStateResidencyTicks::UNDEFINED    146027000                       # Cumulative time (in ticks) in various power states
system.cpu_voltage_domain.voltage                   1                       # Voltage in Volts
system.cpu_clk_domain.clock                       500                       # Clock period in ticks
system.cpu.dtb.walker.pwrStateResidencyTicks::UNDEFINED    146027000                       # Cumulative time (in ticks) in various power states
system.cpu.dtb.rdAccesses                        1084                       # TLB accesses on read requests
system.cpu.dtb.wrAccesses                         941                       # TLB accesses on write requests
system.cpu.dtb.rdMisses                             9                       # TLB misses on read requests
system.cpu.dtb.wrMisses                             7                       # TLB misses on write requests
system.cpu.apic_clk_domain.clock                 8000                       # Clock period in ticks
system.cpu.interrupts.pwrStateResidencyTicks::UNDEFINED    146027000                       # Cumulative time (in ticks) in various power states
system.cpu.itb.walker.pwrStateResidencyTicks::UNDEFINED    146027000                       # Cumulative time (in ticks) in various power states
system.cpu.itb.rdAccesses                           0                       # TLB accesses on read requests
system.cpu.itb.wrAccesses                        7284                       # TLB accesses on write requests
system.cpu.itb.rdMisses                             0                       # TLB misses on read requests
system.cpu.itb.wrMisses                            31                       # TLB misses on write requests
system.cpu.workload.numSyscalls                    11                       # Number of system calls
system.cpu.pwrStateResidencyTicks::ON       146027000                       # Cumulative time (in ticks) in various power states
system.cpu.numCycles                           292054                       # number of cpu cycles simulated
system.cpu.numWorkItemsStarted                      0                       # number of work items this cpu started
system.cpu.numWorkItemsCompleted                    0                       # number of work items this cpu completed
system.cpu.committedInsts                        5712                       # Number of instructions committed
system.cpu.committedOps                         10313                       # Number of ops (including micro ops) committed
system.cpu.num_int_alu_accesses                 10204                       # Number of integer alu accesses
system.cpu.num_fp_alu_accesses                      0                       # Number of float alu accesses
system.cpu.num_vec_alu_accesses                     0                       # Number of vector alu accesses
system.cpu.num_func_calls                         221                       # number of times a function call or return occured
system.cpu.num_conditional_control_insts          986                       # number of instructions that are conditional controls
system.cpu.num_int_insts                        10204                       # number of integer instructions
system.cpu.num_fp_insts                             0                       # number of float instructions
system.cpu.num_vec_insts                            0                       # number of vector instructions
system.cpu.num_int_register_reads               19293                       # number of times the integer registers were read
system.cpu.num_int_register_writes               7976                       # number of times the integer registers were written
system.cpu.num_fp_register_reads                    0                       # number of times the floating registers were read
system.cpu.num_fp_register_writes                   0                       # number of times the floating registers were written
system.cpu.num_vec_register_reads                   0                       # number of times the vector registers were read
system.cpu.num_vec_register_writes                  0                       # number of times the vector registers were written
system.cpu.num_cc_register_reads                 7020                       # number of times the CC registers were read
system.cpu.num_cc_register_writes                3825                       # number of times the CC registers were written
system.cpu.num_mem_refs                          2025                       # number of memory refs
system.cpu.num_load_insts                        1084                       # Number of load instructions
system.cpu.num_store_insts                        941                       # Number of store instructions
system.cpu.num_idle_cycles                          0                       # Number of idle cycles
system.cpu.num_busy_cycles                     292054                       # Number of busy cycles
system.cpu.not_idle_fraction                        1                       # Percentage of non-idle cycles
system.cpu.idle_fraction                            0                       # Percentage of idle cycles
system.cpu.Branches                              1306                       # Number of branches fetched
system.cpu.op_class::No_OpClass                     1      0.01%      0.01% # Class of executed instruction
system.cpu.op_class::IntAlu                      8274     80.23%     80.24% # Class of executed instruction
system.cpu.op_class::IntMult                        6      0.06%     80.30% # Class of executed instruction
system.cpu.op_class::IntDiv                         7      0.07%     80.36% # Class of executed instruction
system.cpu.op_class::FloatAdd                       0      0.00%     80.36% # Class of executed instruction
system.cpu.op_class::FloatCmp                       0      0.00%     80.36% # Class of executed instruction
system.cpu.op_class::FloatCvt                       0      0.00%     80.36% # Class of executed instruction
system.cpu.op_class::FloatMult                      0      0.00%     80.36% # Class of executed instruction
system.cpu.op_class::FloatMultAcc                   0      0.00%     80.36% # Class of executed instruction
system.cpu.op_class::FloatDiv                       0      0.00%     80.36% # Class of executed instruction
system.cpu.op_class::FloatMisc                      0      0.00%     80.36% # Class of executed instruction
system.cpu.op_class::FloatSqrt                      0      0.00%     80.36% # Class of executed instruction
system.cpu.op_class::SimdAdd                        0      0.00%     80.36% # Class of executed instruction
system.cpu.op_class::SimdAddAcc                     0      0.00%     80.36% # Class of executed instruction
system.cpu.op_class::SimdAlu                        0      0.00%     80.36% # Class of executed instruction
system.cpu.op_class::SimdCmp                        0      0.00%     80.36% # Class of executed instruction
system.cpu.op_class::SimdCvt                        0      0.00%     80.36% # Class of executed instruction
system.cpu.op_class::SimdMisc                       0      0.00%     80.36% # Class of executed instruction
system.cpu.op_class::SimdMult                       0      0.00%     80.36% # Class of executed instruction
system.cpu.op_class::SimdMultAcc                    0      0.00%     80.36% # Class of executed instruction
system.cpu.op_class::SimdShift                      0      0.00%     80.36% # Class of executed instruction
system.cpu.op_class::SimdShiftAcc                   0      0.00%     80.36% # Class of executed instruction
system.cpu.op_class::SimdSqrt                       0      0.00%     80.36% # Class of executed instruction
system.cpu.op_class::SimdFloatAdd                   0      0.00%     80.36% # Class of executed instruction
system.cpu.op_class::SimdFloatAlu                   0      0.00%     80.36% # Class of executed instruction
system.cpu.op_class::SimdFloatCmp                   0      0.00%     80.36% # Class of executed instruction
system.cpu.op_class::SimdFloatCvt                   0      0.00%     80.36% # Class of executed instruction
system.cpu.op_class::SimdFloatDiv                   0      0.00%     80.36% # Class of executed instruction
system.cpu.op_class::SimdFloatMisc                  0      0.00%     80.36% # Class of executed instruction
system.cpu.op_class::SimdFloatMult                  0      0.00%     80.36% # Class of executed instruction
system.cpu.op_class::SimdFloatMultAcc               0      0.00%     80.36% # Class of executed instruction
system.cpu.op_class::SimdFloatSqrt                  0      0.00%     80.36% # Class of executed instruction
system.cpu.op_class::MemRead                     1084     10.51%     90.88% # Class of executed instruction
system.cpu.op_class::MemWrite                     941      9.12%    100.00% # Class of executed instruction
system.cpu.op_class::FloatMemRead                   0      0.00%    100.00% # Class of executed instruction
system.cpu.op_class::FloatMemWrite                  0      0.00%    100.00% # Class of executed instruction
system.cpu.op_class::IprAccess                      0      0.00%    100.00% # Class of executed instruction
system.cpu.op_class::InstPrefetch                   0      0.00%    100.00% # Class of executed instruction
system.cpu.op_class::total                      10313                       # Class of executed instruction
system.cpu.dcache.tags.pwrStateResidencyTicks::UNDEFINED    146027000                       # Cumulative time (in ticks) in various power states
system.cpu.dcache.tags.tagsinuse            82.013998                       # Cycle average of tags in use
system.cpu.dcache.tags.total_refs                2025                       # Total number of references to valid blocks.
system.cpu.dcache.tags.sampled_refs               135                       # Sample count of references to valid blocks.
system.cpu.dcache.tags.avg_refs                    15                       # Average number of references to valid blocks.
system.cpu.dcache.tags.warmup_cycle            759000                       # Cycle when the warmup percentage was hit.
system.cpu.dcache.tags.occ_blocks::cpu.data    82.013998                       # Average occupied blocks per requestor
system.cpu.dcache.tags.occ_percent::cpu.data     0.160184                       # Average percentage of cache occupancy
system.cpu.dcache.tags.occ_percent::total     0.160184                       # Average percentage of cache occupancy
system.cpu.dcache.tags.occ_task_id_blocks::1024          135                       # Occupied blocks per task id
system.cpu.dcache.tags.age_task_id_blocks_1024::0            8                       # Occupied blocks per task id
system.cpu.dcache.tags.age_task_id_blocks_1024::1           59                       # Occupied blocks per task id
system.cpu.dcache.tags.age_task_id_blocks_1024::2           68                       # Occupied blocks per task id
system.cpu.dcache.tags.occ_task_id_percent::1024     0.263672                       # Percentage of cache occupancy per task id
system.cpu.dcache.tags.tag_accesses              4185                       # Number of tag accesses
system.cpu.dcache.tags.data_accesses             4185                       # Number of data accesses
system.cpu.dcache.pwrStateResidencyTicks::UNDEFINED    146027000                       # Cumulative time (in ticks) in various power states
system.cpu.dcache.ReadReq_hits::cpu.data         1028                       # number of ReadReq hits
system.cpu.dcache.ReadReq_hits::total            1028                       # number of ReadReq hits
system.cpu.dcache.WriteReq_hits::cpu.data          397                       # number of WriteReq hits
system.cpu.dcache.WriteReq_hits::total            397                       # number of WriteReq hits
system.cpu.dcache.demand_hits::cpu.data          1425                       # number of demand (read+write) hits
system.cpu.dcache.demand_hits::total             1425                       # number of demand (read+write) hits
system.cpu.dcache.overall_hits::cpu.data         1425                       # number of overall hits
system.cpu.dcache.overall_hits::total            1425                       # number of overall hits
system.cpu.dcache.ReadReq_misses::cpu.data           56                       # number of ReadReq misses
system.cpu.dcache.ReadReq_misses::total            56                       # number of ReadReq misses
system.cpu.dcache.WriteReq_misses::cpu.data          544                       # number of WriteReq misses
system.cpu.dcache.WriteReq_misses::total          544                       # number of WriteReq misses
system.cpu.dcache.demand_misses::cpu.data          600                       # number of demand (read+write) misses
system.cpu.dcache.demand_misses::total            600                       # number of demand (read+write) misses
system.cpu.dcache.overall_misses::cpu.data          600                       # number of overall misses
system.cpu.dcache.overall_misses::total           600                       # number of overall misses
system.cpu.dcache.ReadReq_miss_latency::cpu.data     17728500                       # number of ReadReq miss cycles
system.cpu.dcache.ReadReq_miss_latency::total     17728500                       # number of ReadReq miss cycles
system.cpu.dcache.WriteReq_miss_latency::cpu.data     43682500                       # number of WriteReq miss cycles
system.cpu.dcache.WriteReq_miss_latency::total     43682500                       # number of WriteReq miss cycles
system.cpu.dcache.demand_miss_latency::cpu.data     61411000                       # number of demand (read+write) miss cycles
system.cpu.dcache.demand_miss_latency::total     61411000                       # number of demand (read+write) miss cycles
system.cpu.dcache.overall_miss_latency::cpu.data     61411000                       # number of overall miss cycles
system.cpu.dcache.overall_miss_latency::total     61411000                       # number of overall miss cycles
system.cpu.dcache.ReadReq_accesses::cpu.data         1084                       # number of ReadReq accesses(hits+misses)
system.cpu.dcache.ReadReq_accesses::total         1084                       # number of ReadReq accesses(hits+misses)
system.cpu.dcache.WriteReq_accesses::cpu.data          941                       # number of WriteReq accesses(hits+misses)
system.cpu.dcache.WriteReq_accesses::total          941                       # number of WriteReq accesses(hits+misses)
system.cpu.dcache.demand_accesses::cpu.data         2025                       # number of demand (read+write) accesses
system.cpu.dcache.demand_accesses::total         2025                       # number of demand (read+write) accesses
system.cpu.dcache.overall_accesses::cpu.data         2025                       # number of overall (read+write) accesses
system.cpu.dcache.overall_accesses::total         2025                       # number of overall (read+write) accesses
system.cpu.dcache.ReadReq_miss_rate::cpu.data     0.051661                       # miss rate for ReadReq accesses
system.cpu.dcache.ReadReq_miss_rate::total     0.051661                       # miss rate for ReadReq accesses
system.cpu.dcache.WriteReq_miss_rate::cpu.data     0.578108                       # miss rate for WriteReq accesses
system.cpu.dcache.WriteReq_miss_rate::total     0.578108                       # miss rate for WriteReq accesses
system.cpu.dcache.demand_miss_rate::cpu.data     0.296296                       # miss rate for demand accesses
system.cpu.dcache.demand_miss_rate::total     0.296296                       # miss rate for demand accesses
system.cpu.dcache.overall_miss_rate::cpu.data     0.296296                       # miss rate for overall accesses
system.cpu.dcache.overall_miss_rate::total     0.296296                       # miss rate for overall accesses
system.cpu.dcache.ReadReq_avg_miss_latency::cpu.data 316580.357143                       # average ReadReq miss latency
system.cpu.dcache.ReadReq_avg_miss_latency::total 316580.357143                       # average ReadReq miss latency
system.cpu.dcache.WriteReq_avg_miss_latency::cpu.data 80298.713235                       # average WriteReq miss latency
system.cpu.dcache.WriteReq_avg_miss_latency::total 80298.713235                       # average WriteReq miss latency
system.cpu.dcache.demand_avg_miss_latency::cpu.data 102351.666667                       # average overall miss latency
system.cpu.dcache.demand_avg_miss_latency::total 102351.666667                       # average overall miss latency
system.cpu.dcache.overall_avg_miss_latency::cpu.data 102351.666667                       # average overall miss latency
system.cpu.dcache.overall_avg_miss_latency::total 102351.666667                       # average overall miss latency
system.cpu.dcache.blocked_cycles::no_mshrs            0                       # number of cycles access was blocked
system.cpu.dcache.blocked_cycles::no_targets            0                       # number of cycles access was blocked
system.cpu.dcache.blocked::no_mshrs                 0                       # number of cycles access was blocked
system.cpu.dcache.blocked::no_targets               0                       # number of cycles access was blocked
system.cpu.dcache.avg_blocked_cycles::no_mshrs          nan                       # average number of cycles each access was blocked
system.cpu.dcache.avg_blocked_cycles::no_targets          nan                       # average number of cycles each access was blocked
system.cpu.dcache.ReadReq_mshr_misses::cpu.data           56                       # number of ReadReq MSHR misses
system.cpu.dcache.ReadReq_mshr_misses::total           56                       # number of ReadReq MSHR misses
system.cpu.dcache.WriteReq_mshr_misses::cpu.data          544                       # number of WriteReq MSHR misses
system.cpu.dcache.WriteReq_mshr_misses::total          544                       # number of WriteReq MSHR misses
system.cpu.dcache.demand_mshr_misses::cpu.data          600                       # number of demand (read+write) MSHR misses
system.cpu.dcache.demand_mshr_misses::total          600                       # number of demand (read+write) MSHR misses
system.cpu.dcache.overall_mshr_misses::cpu.data          600                       # number of overall MSHR misses
system.cpu.dcache.overall_mshr_misses::total          600                       # number of overall MSHR misses
system.cpu.dcache.ReadReq_mshr_miss_latency::cpu.data     17672500                       # number of ReadReq MSHR miss cycles
system.cpu.dcache.ReadReq_mshr_miss_latency::total     17672500                       # number of ReadReq MSHR miss cycles
system.cpu.dcache.WriteReq_mshr_miss_latency::cpu.data     43138500                       # number of WriteReq MSHR miss cycles
system.cpu.dcache.WriteReq_mshr_miss_latency::total     43138500                       # number of WriteReq MSHR miss cycles
system.cpu.dcache.demand_mshr_miss_latency::cpu.data     60811000                       # number of demand (read+write) MSHR miss cycles
system.cpu.dcache.demand_mshr_miss_latency::total     60811000                       # number of demand (read+write) MSHR miss cycles
system.cpu.dcache.overall_mshr_miss_latency::cpu.data     60811000                       # number of overall MSHR miss cycles
system.cpu.dcache.overall_mshr_miss_latency::total     60811000                       # number of overall MSHR miss cycles
system.cpu.dcache.ReadReq_mshr_miss_rate::cpu.data     0.051661                       # mshr miss rate for ReadReq accesses
system.cpu.dcache.ReadReq_mshr_miss_rate::total     0.051661                       # mshr miss rate for ReadReq accesses
system.cpu.dcache.WriteReq_mshr_miss_rate::cpu.data     0.578108                       # mshr miss rate for WriteReq accesses
system.cpu.dcache.WriteReq_mshr_miss_rate::total     0.578108                       # mshr miss rate for WriteReq accesses
system.cpu.dcache.demand_mshr_miss_rate::cpu.data     0.296296                       # mshr miss rate for demand accesses
system.cpu.dcache.demand_mshr_miss_rate::total     0.296296                       # mshr miss rate for demand accesses
system.cpu.dcache.overall_mshr_miss_rate::cpu.data     0.296296                       # mshr miss rate for overall accesses
system.cpu.dcache.overall_mshr_miss_rate::total     0.296296                       # mshr miss rate for overall accesses
system.cpu.dcache.ReadReq_avg_mshr_miss_latency::cpu.data 315580.357143                       # average ReadReq mshr miss latency
system.cpu.dcache.ReadReq_avg_mshr_miss_latency::total 315580.357143                       # average ReadReq mshr miss latency
system.cpu.dcache.WriteReq_avg_mshr_miss_latency::cpu.data 79298.713235                       # average WriteReq mshr miss latency
system.cpu.dcache.WriteReq_avg_mshr_miss_latency::total 79298.713235                       # average WriteReq mshr miss latency
system.cpu.dcache.demand_avg_mshr_miss_latency::cpu.data 101351.666667                       # average overall mshr miss latency
system.cpu.dcache.demand_avg_mshr_miss_latency::total 101351.666667                       # average overall mshr miss latency
system.cpu.dcache.overall_avg_mshr_miss_latency::cpu.data 101351.666667                       # average overall mshr miss latency
system.cpu.dcache.overall_avg_mshr_miss_latency::total 101351.666667                       # average overall mshr miss latency
system.cpu.dcache.replacements                      0                       # number of replacements
system.cpu.dtb_walker_cache.tags.pwrStateResidencyTicks::UNDEFINED    146027000                       # Cumulative time (in ticks) in various power states
system.cpu.dtb_walker_cache.tags.tagsinuse            0                       # Cycle average of tags in use
system.cpu.dtb_walker_cache.tags.total_refs            0                       # Total number of references to valid blocks.
system.cpu.dtb_walker_cache.tags.sampled_refs            0                       # Sample count of references to valid blocks.
system.cpu.dtb_walker_cache.tags.avg_refs          nan                       # Average number of references to valid blocks.
system.cpu.dtb_walker_cache.tags.warmup_cycle            0                       # Cycle when the warmup percentage was hit.
system.cpu.dtb_walker_cache.tags.tag_accesses            0                       # Number of tag accesses
system.cpu.dtb_walker_cache.tags.data_accesses            0                       # Number of data accesses
system.cpu.dtb_walker_cache.pwrStateResidencyTicks::UNDEFINED    146027000                       # Cumulative time (in ticks) in various power states
system.cpu.dtb_walker_cache.blocked_cycles::no_mshrs            0                       # number of cycles access was blocked
system.cpu.dtb_walker_cache.blocked_cycles::no_targets            0                       # number of cycles access was blocked
system.cpu.dtb_walker_cache.blocked::no_mshrs            0                       # number of cycles access was blocked
system.cpu.dtb_walker_cache.blocked::no_targets            0                       # number of cycles access was blocked
system.cpu.dtb_walker_cache.avg_blocked_cycles::no_mshrs          nan                       # average number of cycles each access was blocked
system.cpu.dtb_walker_cache.avg_blocked_cycles::no_targets          nan                       # average number of cycles each access was blocked
system.cpu.dtb_walker_cache.replacements            0                       # number of replacements
system.cpu.icache.tags.pwrStateResidencyTicks::UNDEFINED    146027000                       # Cumulative time (in ticks) in various power states
system.cpu.icache.tags.tagsinuse           101.365741                       # Cycle average of tags in use
system.cpu.icache.tags.total_refs                7284                       # Total number of references to valid blocks.
system.cpu.icache.tags.sampled_refs               230                       # Sample count of references to valid blocks.
system.cpu.icache.tags.avg_refs             31.669565                       # Average number of references to valid blocks.
system.cpu.icache.tags.warmup_cycle            439000                       # Cycle when the warmup percentage was hit.
system.cpu.icache.tags.occ_blocks::cpu.inst   101.365741                       # Average occupied blocks per requestor
system.cpu.icache.tags.occ_percent::cpu.inst     0.197980                       # Average percentage of cache occupancy
system.cpu.icache.tags.occ_percent::total     0.197980                       # Average percentage of cache occupancy
system.cpu.icache.tags.occ_task_id_blocks::1024          217                       # Occupied blocks per task id
system.cpu.icache.tags.age_task_id_blocks_1024::0           14                       # Occupied blocks per task id
system.cpu.icache.tags.age_task_id_blocks_1024::1          150                       # Occupied blocks per task id
system.cpu.icache.tags.age_task_id_blocks_1024::2           53                       # Occupied blocks per task id
system.cpu.icache.tags.occ_task_id_percent::1024     0.423828                       # Percentage of cache occupancy per task id
system.cpu.icache.tags.tag_accesses             14798                       # Number of tag accesses
system.cpu.icache.tags.data_accesses            14798                       # Number of data accesses
system.cpu.icache.pwrStateResidencyTicks::UNDEFINED    146027000                       # Cumulative time (in ticks) in various power states
system.cpu.icache.ReadReq_hits::cpu.inst         7054                       # number of ReadReq hits
system.cpu.icache.ReadReq_hits::total            7054                       # number of ReadReq hits
system.cpu.icache.demand_hits::cpu.inst          7054                       # number of demand (read+write) hits
system.cpu.icache.demand_hits::total             7054                       # number of demand (read+write) hits
system.cpu.icache.overall_hits::cpu.inst         7054                       # number of overall hits
system.cpu.icache.overall_hits::total            7054                       # number of overall hits
system.cpu.icache.ReadReq_misses::cpu.inst          230                       # number of ReadReq misses
system.cpu.icache.ReadReq_misses::total           230                       # number of ReadReq misses
system.cpu.icache.demand_misses::cpu.inst          230                       # number of demand (read+write) misses
system.cpu.icache.demand_misses::total            230                       # number of demand (read+write) misses
system.cpu.icache.overall_misses::cpu.inst          230                       # number of overall misses
system.cpu.icache.overall_misses::total           230                       # number of overall misses
system.cpu.icache.ReadReq_miss_latency::cpu.inst     76138000                       # number of ReadReq miss cycles
system.cpu.icache.ReadReq_miss_latency::total     76138000                       # number of ReadReq miss cycles
system.cpu.icache.demand_miss_latency::cpu.inst     76138000                       # number of demand (read+write) miss cycles
system.cpu.icache.demand_miss_latency::total     76138000                       # number of demand (read+write) miss cycles
system.cpu.icache.overall_miss_latency::cpu.inst     76138000                       # number of overall miss cycles
system.cpu.icache.overall_miss_latency::total     76138000                       # number of overall miss cycles
system.cpu.icache.ReadReq_accesses::cpu.inst         7284                       # number of ReadReq accesses(hits+misses)
system.cpu.icache.ReadReq_accesses::total         7284                       # number of ReadReq accesses(hits+misses)
system.cpu.icache.demand_accesses::cpu.inst         7284                       # number of demand (read+write) accesses
system.cpu.icache.demand_accesses::total         7284                       # number of demand (read+write) accesses
system.cpu.icache.overall_accesses::cpu.inst         7284                       # number of overall (read+write) accesses
system.cpu.icache.overall_accesses::total         7284                       # number of overall (read+write) accesses
system.cpu.icache.ReadReq_miss_rate::cpu.inst     0.031576                       # miss rate for ReadReq accesses
system.cpu.icache.ReadReq_miss_rate::total     0.031576                       # miss rate for ReadReq accesses
system.cpu.icache.demand_miss_rate::cpu.inst     0.031576                       # miss rate for demand accesses
system.cpu.icache.demand_miss_rate::total     0.031576                       # miss rate for demand accesses
system.cpu.icache.overall_miss_rate::cpu.inst     0.031576                       # miss rate for overall accesses
system.cpu.icache.overall_miss_rate::total     0.031576                       # miss rate for overall accesses
system.cpu.icache.ReadReq_avg_miss_latency::cpu.inst 331034.782609                       # average ReadReq miss latency
system.cpu.icache.ReadReq_avg_miss_latency::total 331034.782609                       # average ReadReq miss latency
system.cpu.icache.demand_avg_miss_latency::cpu.inst 331034.782609                       # average overall miss latency
system.cpu.icache.demand_avg_miss_latency::total 331034.782609                       # average overall miss latency
system.cpu.icache.overall_avg_miss_latency::cpu.inst 331034.782609                       # average overall miss latency
system.cpu.icache.overall_avg_miss_latency::total 331034.782609                       # average overall miss latency
system.cpu.icache.blocked_cycles::no_mshrs            0                       # number of cycles access was blocked
system.cpu.icache.blocked_cycles::no_targets            0                       # number of cycles access was blocked
system.cpu.icache.blocked::no_mshrs                 0                       # number of cycles access was blocked
system.cpu.icache.blocked::no_targets               0                       # number of cycles access was blocked
system.cpu.icache.avg_blocked_cycles::no_mshrs          nan                       # average number of cycles each access was blocked
system.cpu.icache.avg_blocked_cycles::no_targets          nan                       # average number of cycles each access was blocked
system.cpu.icache.writebacks::writebacks           13                       # number of writebacks
system.cpu.icache.writebacks::total                13                       # number of writebacks
system.cpu.icache.ReadReq_mshr_misses::cpu.inst          230                       # number of ReadReq MSHR misses
system.cpu.icache.ReadReq_mshr_misses::total          230                       # number of ReadReq MSHR misses
system.cpu.icache.demand_mshr_misses::cpu.inst          230                       # number of demand (read+write) MSHR misses
system.cpu.icache.demand_mshr_misses::total          230                       # number of demand (read+write) MSHR misses
system.cpu.icache.overall_mshr_misses::cpu.inst          230                       # number of overall MSHR misses
system.cpu.icache.overall_mshr_misses::total          230                       # number of overall MSHR misses
system.cpu.icache.ReadReq_mshr_miss_latency::cpu.inst     75908000                       # number of ReadReq MSHR miss cycles
system.cpu.icache.ReadReq_mshr_miss_latency::total     75908000                       # number of ReadReq MSHR miss cycles
system.cpu.icache.demand_mshr_miss_latency::cpu.inst     75908000                       # number of demand (read+write) MSHR miss cycles
system.cpu.icache.demand_mshr_miss_latency::total     75908000                       # number of demand (read+write) MSHR miss cycles
system.cpu.icache.overall_mshr_miss_latency::cpu.inst     75908000                       # number of overall MSHR miss cycles
system.cpu.icache.overall_mshr_miss_latency::total     75908000                       # number of overall MSHR miss cycles
system.cpu.icache.ReadReq_mshr_miss_rate::cpu.inst     0.031576                       # mshr miss rate for ReadReq accesses
system.cpu.icache.ReadReq_mshr_miss_rate::total     0.031576                       # mshr miss rate for ReadReq accesses
system.cpu.icache.demand_mshr_miss_rate::cpu.inst     0.031576                       # mshr miss rate for demand accesses
system.cpu.icache.demand_mshr_miss_rate::total     0.031576                       # mshr miss rate for demand accesses
system.cpu.icache.overall_mshr_miss_rate::cpu.inst     0.031576                       # mshr miss rate for overall accesses
system.cpu.icache.overall_mshr_miss_rate::total     0.031576                       # mshr miss rate for overall accesses
system.cpu.icache.ReadReq_avg_mshr_miss_latency::cpu.inst 330034.782609                       # average ReadReq mshr miss latency
system.cpu.icache.ReadReq_avg_mshr_miss_latency::total 330034.782609                       # average ReadReq mshr miss latency
system.cpu.icache.demand_avg_mshr_miss_latency::cpu.inst 330034.782609                       # average overall mshr miss latency
system.cpu.icache.demand_avg_mshr_miss_latency::total 330034.782609                       # average overall mshr miss latency
system.cpu.icache.overall_avg_mshr_miss_latency::cpu.inst 330034.782609                       # average overall mshr miss latency
system.cpu.icache.overall_avg_mshr_miss_latency::total 330034.782609                       # average overall mshr miss latency
system.cpu.icache.replacements                     13                       # number of replacements
system.cpu.itb_walker_cache.tags.pwrStateResidencyTicks::UNDEFINED    146027000                       # Cumulative time (in ticks) in various power states
system.cpu.itb_walker_cache.tags.tagsinuse            0                       # Cycle average of tags in use
system.cpu.itb_walker_cache.tags.total_refs            0                       # Total number of references to valid blocks.
system.cpu.itb_walker_cache.tags.sampled_refs            0                       # Sample count of references to valid blocks.
system.cpu.itb_walker_cache.tags.avg_refs          nan                       # Average number of references to valid blocks.
system.cpu.itb_walker_cache.tags.warmup_cycle            0                       # Cycle when the warmup percentage was hit.
system.cpu.itb_walker_cache.tags.tag_accesses            0                       # Number of tag accesses
system.cpu.itb_walker_cache.tags.data_accesses            0                       # Number of data accesses
system.cpu.itb_walker_cache.pwrStateResidencyTicks::UNDEFINED    146027000                       # Cumulative time (in ticks) in various power states
system.cpu.itb_walker_cache.blocked_cycles::no_mshrs            0                       # number of cycles access was blocked
system.cpu.itb_walker_cache.blocked_cycles::no_targets            0                       # number of cycles access was blocked
system.cpu.itb_walker_cache.blocked::no_mshrs            0                       # number of cycles access was blocked
system.cpu.itb_walker_cache.blocked::no_targets            0                       # number of cycles access was blocked
system.cpu.itb_walker_cache.avg_blocked_cycles::no_mshrs          nan                       # average number of cycles each access was blocked
system.cpu.itb_walker_cache.avg_blocked_cycles::no_targets          nan                       # average number of cycles each access was blocked
system.cpu.itb_walker_cache.replacements            0                       # number of replacements
system.l2.tags.pwrStateResidencyTicks::UNDEFINED    146027000                       # Cumulative time (in ticks) in various power states
system.l2.tags.tagsinuse                   188.709973                       # Cycle average of tags in use
system.l2.tags.total_refs                        1414                       # Total number of references to valid blocks.
system.l2.tags.sampled_refs                       364                       # Sample count of references to valid blocks.
system.l2.tags.avg_refs                      3.884615                       # Average number of references to valid blocks.
system.l2.tags.warmup_cycle                    428500                       # Cycle when the warmup percentage was hit.
system.l2.tags.occ_blocks::cpu.inst        106.686268                       # Average occupied blocks per requestor
system.l2.tags.occ_blocks::cpu.data         82.023705                       # Average occupied blocks per requestor
system.l2.tags.occ_percent::cpu.inst         0.052093                       # Average percentage of cache occupancy
system.l2.tags.occ_percent::cpu.data         0.040051                       # Average percentage of cache occupancy
system.l2.tags.occ_percent::total            0.092144                       # Average percentage of cache occupancy
system.l2.tags.occ_task_id_blocks::1024           364                       # Occupied blocks per task id
system.l2.tags.age_task_id_blocks_1024::0           22                       # Occupied blocks per task id
system.l2.tags.age_task_id_blocks_1024::1          212                       # Occupied blocks per task id
system.l2.tags.age_task_id_blocks_1024::2          130                       # Occupied blocks per task id
system.l2.tags.occ_task_id_percent::1024     0.177734                       # Percentage of cache occupancy per task id
system.l2.tags.tag_accesses                     11676                       # Number of tag accesses
system.l2.tags.data_accesses                    11676                       # Number of data accesses
system.l2.pwrStateResidencyTicks::UNDEFINED    146027000                       # Cumulative time (in ticks) in various power states
system.l2.WritebackClean_hits::writebacks           13                       # number of WritebackClean hits
system.l2.WritebackClean_hits::total               13                       # number of WritebackClean hits
system.l2.WriteClean_hits::writebacks             571                       # number of WriteClean hits
system.l2.WriteClean_hits::total                  571                       # number of WriteClean hits
system.l2.UpgradeReq_hits::cpu.data               262                       # number of UpgradeReq hits
system.l2.UpgradeReq_hits::total                  262                       # number of UpgradeReq hits
system.l2.ReadCleanReq_hits::cpu.inst               1                       # number of ReadCleanReq hits
system.l2.ReadCleanReq_hits::total                  1                       # number of ReadCleanReq hits
system.l2.demand_hits::cpu.inst                     1                       # number of demand (read+write) hits
system.l2.demand_hits::total                        1                       # number of demand (read+write) hits
system.l2.overall_hits::cpu.inst                    1                       # number of overall hits
system.l2.overall_hits::total                       1                       # number of overall hits
system.l2.UpgradeReq_misses::cpu.data             203                       # number of UpgradeReq misses
system.l2.UpgradeReq_misses::total                203                       # number of UpgradeReq misses
system.l2.ReadExReq_misses::cpu.data               79                       # number of ReadExReq misses
system.l2.ReadExReq_misses::total                  79                       # number of ReadExReq misses
system.l2.ReadCleanReq_misses::cpu.inst           229                       # number of ReadCleanReq misses
system.l2.ReadCleanReq_misses::total              229                       # number of ReadCleanReq misses
system.l2.ReadSharedReq_misses::cpu.data           56                       # number of ReadSharedReq misses
system.l2.ReadSharedReq_misses::total              56                       # number of ReadSharedReq misses
system.l2.demand_misses::cpu.inst                 229                       # number of demand (read+write) misses
system.l2.demand_misses::cpu.data                 135                       # number of demand (read+write) misses
system.l2.demand_misses::total                    364                       # number of demand (read+write) misses
system.l2.overall_misses::cpu.inst                229                       # number of overall misses
system.l2.overall_misses::cpu.data                135                       # number of overall misses
system.l2.overall_misses::total                   364                       # number of overall misses
system.l2.UpgradeReq_miss_latency::cpu.data      7862500                       # number of UpgradeReq miss cycles
system.l2.UpgradeReq_miss_latency::total      7862500                       # number of UpgradeReq miss cycles
system.l2.ReadExReq_miss_latency::cpu.data     31705000                       # number of ReadExReq miss cycles
system.l2.ReadExReq_miss_latency::total      31705000                       # number of ReadExReq miss cycles
system.l2.ReadCleanReq_miss_latency::cpu.inst     75544500                       # number of ReadCleanReq miss cycles
system.l2.ReadCleanReq_miss_latency::total     75544500                       # number of ReadCleanReq miss cycles
system.l2.ReadSharedReq_miss_latency::cpu.data     17588500                       # number of ReadSharedReq miss cycles
system.l2.ReadSharedReq_miss_latency::total     17588500                       # number of ReadSharedReq miss cycles
system.l2.demand_miss_latency::cpu.inst      75544500                       # number of demand (read+write) miss cycles
system.l2.demand_miss_latency::cpu.data      49293500                       # number of demand (read+write) miss cycles
system.l2.demand_miss_latency::total        124838000                       # number of demand (read+write) miss cycles
system.l2.overall_miss_latency::cpu.inst     75544500                       # number of overall miss cycles
system.l2.overall_miss_latency::cpu.data     49293500                       # number of overall miss cycles
system.l2.overall_miss_latency::total       124838000                       # number of overall miss cycles
system.l2.WritebackClean_accesses::writebacks           13                       # number of WritebackClean accesses(hits+misses)
system.l2.WritebackClean_accesses::total           13                       # number of WritebackClean accesses(hits+misses)
system.l2.WriteClean_accesses::writebacks          571                       # number of WriteClean accesses(hits+misses)
system.l2.WriteClean_accesses::total              571                       # number of WriteClean accesses(hits+misses)
system.l2.UpgradeReq_accesses::cpu.data           465                       # number of UpgradeReq accesses(hits+misses)
system.l2.UpgradeReq_accesses::total              465                       # number of UpgradeReq accesses(hits+misses)
system.l2.ReadExReq_accesses::cpu.data             79                       # number of ReadExReq accesses(hits+misses)
system.l2.ReadExReq_accesses::total                79                       # number of ReadExReq accesses(hits+misses)
system.l2.ReadCleanReq_accesses::cpu.inst          230                       # number of ReadCleanReq accesses(hits+misses)
system.l2.ReadCleanReq_accesses::total            230                       # number of ReadCleanReq accesses(hits+misses)
system.l2.ReadSharedReq_accesses::cpu.data           56                       # number of ReadSharedReq accesses(hits+misses)
system.l2.ReadSharedReq_accesses::total            56                       # number of ReadSharedReq accesses(hits+misses)
system.l2.demand_accesses::cpu.inst               230                       # number of demand (read+write) accesses
system.l2.demand_accesses::cpu.data               135                       # number of demand (read+write) accesses
system.l2.demand_accesses::total                  365                       # number of demand (read+write) accesses
system.l2.overall_accesses::cpu.inst              230                       # number of overall (read+write) accesses
system.l2.overall_accesses::cpu.data              135                       # number of overall (read+write) accesses
system.l2.overall_accesses::total                 365                       # number of overall (read+write) accesses
system.l2.UpgradeReq_miss_rate::cpu.data     0.436559                       # miss rate for UpgradeReq accesses
system.l2.UpgradeReq_miss_rate::total        0.436559                       # miss rate for UpgradeReq accesses
system.l2.ReadExReq_miss_rate::cpu.data             1                       # miss rate for ReadExReq accesses
system.l2.ReadExReq_miss_rate::total                1                       # miss rate for ReadExReq accesses
system.l2.ReadCleanReq_miss_rate::cpu.inst     0.995652                       # miss rate for ReadCleanReq accesses
system.l2.ReadCleanReq_miss_rate::total      0.995652                       # miss rate for ReadCleanReq accesses
system.l2.ReadSharedReq_miss_rate::cpu.data            1                       # miss rate for ReadSharedReq accesses
system.l2.ReadSharedReq_miss_rate::total            1                       # miss rate for ReadSharedReq accesses
system.l2.demand_miss_rate::cpu.inst         0.995652                       # miss rate for demand accesses
system.l2.demand_miss_rate::cpu.data                1                       # miss rate for demand accesses
system.l2.demand_miss_rate::total            0.997260                       # miss rate for demand accesses
system.l2.overall_miss_rate::cpu.inst        0.995652                       # miss rate for overall accesses
system.l2.overall_miss_rate::cpu.data               1                       # miss rate for overall accesses
system.l2.overall_miss_rate::total           0.997260                       # miss rate for overall accesses
system.l2.UpgradeReq_avg_miss_latency::cpu.data 38731.527094                       # average UpgradeReq miss latency
system.l2.UpgradeReq_avg_miss_latency::total 38731.527094                       # average UpgradeReq miss latency
system.l2.ReadExReq_avg_miss_latency::cpu.data 401329.113924                       # average ReadExReq miss latency
system.l2.ReadExReq_avg_miss_latency::total 401329.113924                       # average ReadExReq miss latency
system.l2.ReadCleanReq_avg_miss_latency::cpu.inst 329888.646288                       # average ReadCleanReq miss latency
system.l2.ReadCleanReq_avg_miss_latency::total 329888.646288                       # average ReadCleanReq miss latency
system.l2.ReadSharedReq_avg_miss_latency::cpu.data 314080.357143                       # average ReadSharedReq miss latency
system.l2.ReadSharedReq_avg_miss_latency::total 314080.357143                       # average ReadSharedReq miss latency
system.l2.demand_avg_miss_latency::cpu.inst 329888.646288                       # average overall miss latency
system.l2.demand_avg_miss_latency::cpu.data 365137.037037                       # average overall miss latency
system.l2.demand_avg_miss_latency::total 342961.538462                       # average overall miss latency
system.l2.overall_avg_miss_latency::cpu.inst 329888.646288                       # average overall miss latency
system.l2.overall_avg_miss_latency::cpu.data 365137.037037                       # average overall miss latency
system.l2.overall_avg_miss_latency::total 342961.538462                       # average overall miss latency
system.l2.blocked_cycles::no_mshrs                  0                       # number of cycles access was blocked
system.l2.blocked_cycles::no_targets                0                       # number of cycles access was blocked
system.l2.blocked::no_mshrs                         0                       # number of cycles access was blocked
system.l2.blocked::no_targets                       0                       # number of cycles access was blocked
system.l2.avg_blocked_cycles::no_mshrs            nan                       # average number of cycles each access was blocked
system.l2.avg_blocked_cycles::no_targets          nan                       # average number of cycles each access was blocked
system.l2.UpgradeReq_mshr_misses::cpu.data          203                       # number of UpgradeReq MSHR misses
system.l2.UpgradeReq_mshr_misses::total           203                       # number of UpgradeReq MSHR misses
system.l2.ReadExReq_mshr_misses::cpu.data           79                       # number of ReadExReq MSHR misses
system.l2.ReadExReq_mshr_misses::total             79                       # number of ReadExReq MSHR misses
system.l2.ReadCleanReq_mshr_misses::cpu.inst          229                       # number of ReadCleanReq MSHR misses
system.l2.ReadCleanReq_mshr_misses::total          229                       # number of ReadCleanReq MSHR misses
system.l2.ReadSharedReq_mshr_misses::cpu.data           56                       # number of ReadSharedReq MSHR misses
system.l2.ReadSharedReq_mshr_misses::total           56                       # number of ReadSharedReq MSHR misses
system.l2.demand_mshr_misses::cpu.inst            229                       # number of demand (read+write) MSHR misses
system.l2.demand_mshr_misses::cpu.data            135                       # number of demand (read+write) MSHR misses
system.l2.demand_mshr_misses::total               364                       # number of demand (read+write) MSHR misses
system.l2.overall_mshr_misses::cpu.inst           229                       # number of overall MSHR misses
system.l2.overall_mshr_misses::cpu.data           135                       # number of overall MSHR misses
system.l2.overall_mshr_misses::total              364                       # number of overall MSHR misses
system.l2.UpgradeReq_mshr_miss_latency::cpu.data      5832500                       # number of UpgradeReq MSHR miss cycles
system.l2.UpgradeReq_mshr_miss_latency::total      5832500                       # number of UpgradeReq MSHR miss cycles
system.l2.ReadExReq_mshr_miss_latency::cpu.data     30915000                       # number of ReadExReq MSHR miss cycles
system.l2.ReadExReq_mshr_miss_latency::total     30915000                       # number of ReadExReq MSHR miss cycles
system.l2.ReadCleanReq_mshr_miss_latency::cpu.inst     73254500                       # number of ReadCleanReq MSHR miss cycles
system.l2.ReadCleanReq_mshr_miss_latency::total     73254500                       # number of ReadCleanReq MSHR miss cycles
system.l2.ReadSharedReq_mshr_miss_latency::cpu.data     17028500                       # number of ReadSharedReq MSHR miss cycles
system.l2.ReadSharedReq_mshr_miss_latency::total     17028500                       # number of ReadSharedReq MSHR miss cycles
system.l2.demand_mshr_miss_latency::cpu.inst     73254500                       # number of demand (read+write) MSHR miss cycles
system.l2.demand_mshr_miss_latency::cpu.data     47943500                       # number of demand (read+write) MSHR miss cycles
system.l2.demand_mshr_miss_latency::total    121198000                       # number of demand (read+write) MSHR miss cycles
system.l2.overall_mshr_miss_latency::cpu.inst     73254500                       # number of overall MSHR miss cycles
system.l2.overall_mshr_miss_latency::cpu.data     47943500                       # number of overall MSHR miss cycles
system.l2.overall_mshr_miss_latency::total    121198000                       # number of overall MSHR miss cycles
system.l2.UpgradeReq_mshr_miss_rate::cpu.data     0.436559                       # mshr miss rate for UpgradeReq accesses
system.l2.UpgradeReq_mshr_miss_rate::total     0.436559                       # mshr miss rate for UpgradeReq accesses
system.l2.ReadExReq_mshr_miss_rate::cpu.data            1                       # mshr miss rate for ReadExReq accesses
system.l2.ReadExReq_mshr_miss_rate::total            1                       # mshr miss rate for ReadExReq accesses
system.l2.ReadCleanReq_mshr_miss_rate::cpu.inst     0.995652                       # mshr miss rate for ReadCleanReq accesses
system.l2.ReadCleanReq_mshr_miss_rate::total     0.995652                       # mshr miss rate for ReadCleanReq accesses
system.l2.ReadSharedReq_mshr_miss_rate::cpu.data            1                       # mshr miss rate for ReadSharedReq accesses
system.l2.ReadSharedReq_mshr_miss_rate::total            1                       # mshr miss rate for ReadSharedReq accesses
system.l2.demand_mshr_miss_rate::cpu.inst     0.995652                       # mshr miss rate for demand accesses
system.l2.demand_mshr_miss_rate::cpu.data            1                       # mshr miss rate for demand accesses
system.l2.demand_mshr_miss_rate::total       0.997260                       # mshr miss rate for demand accesses
system.l2.overall_mshr_miss_rate::cpu.inst     0.995652                       # mshr miss rate for overall accesses
system.l2.overall_mshr_miss_rate::cpu.data            1                       # mshr miss rate for overall accesses
system.l2.overall_mshr_miss_rate::total      0.997260                       # mshr miss rate for overall accesses
system.l2.UpgradeReq_avg_mshr_miss_latency::cpu.data 28731.527094                       # average UpgradeReq mshr miss latency
system.l2.UpgradeReq_avg_mshr_miss_latency::total 28731.527094                       # average UpgradeReq mshr miss latency
system.l2.ReadExReq_avg_mshr_miss_latency::cpu.data 391329.113924                       # average ReadExReq mshr miss latency
system.l2.ReadExReq_avg_mshr_miss_latency::total 391329.113924                       # average ReadExReq mshr miss latency
system.l2.ReadCleanReq_avg_mshr_miss_latency::cpu.inst 319888.646288                       # average ReadCleanReq mshr miss latency
system.l2.ReadCleanReq_avg_mshr_miss_latency::total 319888.646288                       # average ReadCleanReq mshr miss latency
system.l2.ReadSharedReq_avg_mshr_miss_latency::cpu.data 304080.357143                       # average ReadSharedReq mshr miss latency
system.l2.ReadSharedReq_avg_mshr_miss_latency::total 304080.357143                       # average ReadSharedReq mshr miss latency
system.l2.demand_avg_mshr_miss_latency::cpu.inst 319888.646288                       # average overall mshr miss latency
system.l2.demand_avg_mshr_miss_latency::cpu.data 355137.037037                       # average overall mshr miss latency
system.l2.demand_avg_mshr_miss_latency::total 332961.538462                       # average overall mshr miss latency
system.l2.overall_avg_mshr_miss_latency::cpu.inst 319888.646288                       # average overall mshr miss latency
system.l2.overall_avg_mshr_miss_latency::cpu.data 355137.037037                       # average overall mshr miss latency
system.l2.overall_avg_mshr_miss_latency::total 332961.538462                       # average overall mshr miss latency
system.l2.replacements                              0                       # number of replacements
system.l3.tags.pwrStateResidencyTicks::UNDEFINED    146027000                       # Cumulative time (in ticks) in various power states
system.l3.tags.tagsinuse                   188.736146                       # Cycle average of tags in use
system.l3.tags.total_refs                         830                       # Total number of references to valid blocks.
system.l3.tags.sampled_refs                       364                       # Sample count of references to valid blocks.
system.l3.tags.avg_refs                      2.280220                       # Average number of references to valid blocks.
system.l3.tags.warmup_cycle                    418000                       # Cycle when the warmup percentage was hit.
system.l3.tags.occ_blocks::cpu.inst        106.702734                       # Average occupied blocks per requestor
system.l3.tags.occ_blocks::cpu.data         82.033412                       # Average occupied blocks per requestor
system.l3.tags.occ_percent::cpu.inst         0.052101                       # Average percentage of cache occupancy
system.l3.tags.occ_percent::cpu.data         0.040055                       # Average percentage of cache occupancy
system.l3.tags.occ_percent::total            0.092156                       # Average percentage of cache occupancy
system.l3.tags.occ_task_id_blocks::1024           364                       # Occupied blocks per task id
system.l3.tags.age_task_id_blocks_1024::0           22                       # Occupied blocks per task id
system.l3.tags.age_task_id_blocks_1024::1          212                       # Occupied blocks per task id
system.l3.tags.age_task_id_blocks_1024::2          130                       # Occupied blocks per task id
system.l3.tags.occ_task_id_percent::1024     0.177734                       # Percentage of cache occupancy per task id
system.l3.tags.tag_accesses                      3684                       # Number of tag accesses
system.l3.tags.data_accesses                     3684                       # Number of data accesses
system.l3.pwrStateResidencyTicks::UNDEFINED    146027000                       # Cumulative time (in ticks) in various power states
system.l3.WriteClean_hits::writebacks             263                       # number of WriteClean hits
system.l3.WriteClean_hits::total                  263                       # number of WriteClean hits
system.l3.UpgradeReq_hits::cpu.data               128                       # number of UpgradeReq hits
system.l3.UpgradeReq_hits::total                  128                       # number of UpgradeReq hits
system.l3.UpgradeReq_misses::cpu.data              75                       # number of UpgradeReq misses
system.l3.UpgradeReq_misses::total                 75                       # number of UpgradeReq misses
system.l3.ReadExReq_misses::cpu.data               79                       # number of ReadExReq misses
system.l3.ReadExReq_misses::total                  79                       # number of ReadExReq misses
system.l3.ReadSharedReq_misses::cpu.inst          229                       # number of ReadSharedReq misses
system.l3.ReadSharedReq_misses::cpu.data           56                       # number of ReadSharedReq misses
system.l3.ReadSharedReq_misses::total             285                       # number of ReadSharedReq misses
system.l3.demand_misses::cpu.inst                 229                       # number of demand (read+write) misses
system.l3.demand_misses::cpu.data                 135                       # number of demand (read+write) misses
system.l3.demand_misses::total                    364                       # number of demand (read+write) misses
system.l3.overall_misses::cpu.inst                229                       # number of overall misses
system.l3.overall_misses::cpu.data                135                       # number of overall misses
system.l3.overall_misses::total                   364                       # number of overall misses
system.l3.UpgradeReq_miss_latency::cpu.data      2255500                       # number of UpgradeReq miss cycles
system.l3.UpgradeReq_miss_latency::total      2255500                       # number of UpgradeReq miss cycles
system.l3.ReadExReq_miss_latency::cpu.data     30046000                       # number of ReadExReq miss cycles
system.l3.ReadExReq_miss_latency::total      30046000                       # number of ReadExReq miss cycles
system.l3.ReadSharedReq_miss_latency::cpu.inst     70735500                       # number of ReadSharedReq miss cycles
system.l3.ReadSharedReq_miss_latency::cpu.data     16412500                       # number of ReadSharedReq miss cycles
system.l3.ReadSharedReq_miss_latency::total     87148000                       # number of ReadSharedReq miss cycles
system.l3.demand_miss_latency::cpu.inst      70735500                       # number of demand (read+write) miss cycles
system.l3.demand_miss_latency::cpu.data      46458500                       # number of demand (read+write) miss cycles
system.l3.demand_miss_latency::total        117194000                       # number of demand (read+write) miss cycles
system.l3.overall_miss_latency::cpu.inst     70735500                       # number of overall miss cycles
system.l3.overall_miss_latency::cpu.data     46458500                       # number of overall miss cycles
system.l3.overall_miss_latency::total       117194000                       # number of overall miss cycles
system.l3.WriteClean_accesses::writebacks          263                       # number of WriteClean accesses(hits+misses)
system.l3.WriteClean_accesses::total              263                       # number of WriteClean accesses(hits+misses)
system.l3.UpgradeReq_accesses::cpu.data           203                       # number of UpgradeReq accesses(hits+misses)
system.l3.UpgradeReq_accesses::total              203                       # number of UpgradeReq accesses(hits+misses)
system.l3.ReadExReq_accesses::cpu.data             79                       # number of ReadExReq accesses(hits+misses)
system.l3.ReadExReq_accesses::total                79                       # number of ReadExReq accesses(hits+misses)
system.l3.ReadSharedReq_accesses::cpu.inst          229                       # number of ReadSharedReq accesses(hits+misses)
system.l3.ReadSharedReq_accesses::cpu.data           56                       # number of ReadSharedReq accesses(hits+misses)
system.l3.ReadSharedReq_accesses::total           285                       # number of ReadSharedReq accesses(hits+misses)
system.l3.demand_accesses::cpu.inst               229                       # number of demand (read+write) accesses
system.l3.demand_accesses::cpu.data               135                       # number of demand (read+write) accesses
system.l3.demand_accesses::total                  364                       # number of demand (read+write) accesses
system.l3.overall_accesses::cpu.inst              229                       # number of overall (read+write) accesses
system.l3.overall_accesses::cpu.data              135                       # number of overall (read+write) accesses
system.l3.overall_accesses::total                 364                       # number of overall (read+write) accesses
system.l3.UpgradeReq_miss_rate::cpu.data     0.369458                       # miss rate for UpgradeReq accesses
system.l3.UpgradeReq_miss_rate::total        0.369458                       # miss rate for UpgradeReq accesses
system.l3.ReadExReq_miss_rate::cpu.data             1                       # miss rate for ReadExReq accesses
system.l3.ReadExReq_miss_rate::total                1                       # miss rate for ReadExReq accesses
system.l3.ReadSharedReq_miss_rate::cpu.inst            1                       # miss rate for ReadSharedReq accesses
system.l3.ReadSharedReq_miss_rate::cpu.data            1                       # miss rate for ReadSharedReq accesses
system.l3.ReadSharedReq_miss_rate::total            1                       # miss rate for ReadSharedReq accesses
system.l3.demand_miss_rate::cpu.inst                1                       # miss rate for demand accesses
system.l3.demand_miss_rate::cpu.data                1                       # miss rate for demand accesses
system.l3.demand_miss_rate::total                   1                       # miss rate for demand accesses
system.l3.overall_miss_rate::cpu.inst               1                       # miss rate for overall accesses
system.l3.overall_miss_rate::cpu.data               1                       # miss rate for overall accesses
system.l3.overall_miss_rate::total                  1                       # miss rate for overall accesses
system.l3.UpgradeReq_avg_miss_latency::cpu.data 30073.333333                       # average UpgradeReq miss latency
system.l3.UpgradeReq_avg_miss_latency::total 30073.333333                       # average UpgradeReq miss latency
system.l3.ReadExReq_avg_miss_latency::cpu.data 380329.113924                       # average ReadExReq miss latency
system.l3.ReadExReq_avg_miss_latency::total 380329.113924                       # average ReadExReq miss latency
system.l3.ReadSharedReq_avg_miss_latency::cpu.inst 308888.646288                       # average ReadSharedReq miss latency
system.l3.ReadSharedReq_avg_miss_latency::cpu.data 293080.357143                       # average ReadSharedReq miss latency
system.l3.ReadSharedReq_avg_miss_latency::total 305782.456140                       # average ReadSharedReq miss latency
system.l3.demand_avg_miss_latency::cpu.inst 308888.646288                       # average overall miss latency
system.l3.demand_avg_miss_latency::cpu.data 344137.037037                       # average overall miss latency
system.l3.demand_avg_miss_latency::total 321961.538462                       # average overall miss latency
system.l3.overall_avg_miss_latency::cpu.inst 308888.646288                       # average overall miss latency
system.l3.overall_avg_miss_latency::cpu.data 344137.037037                       # average overall miss latency
system.l3.overall_avg_miss_latency::total 321961.538462                       # average overall miss latency
system.l3.blocked_cycles::no_mshrs                  0                       # number of cycles access was blocked
system.l3.blocked_cycles::no_targets                0                       # number of cycles access was blocked
system.l3.blocked::no_mshrs                         0                       # number of cycles access was blocked
system.l3.blocked::no_targets                       0                       # number of cycles access was blocked
system.l3.avg_blocked_cycles::no_mshrs            nan                       # average number of cycles each access was blocked
system.l3.avg_blocked_cycles::no_targets          nan                       # average number of cycles each access was blocked
system.l3.UpgradeReq_mshr_misses::cpu.data           75                       # number of UpgradeReq MSHR misses
system.l3.UpgradeReq_mshr_misses::total            75                       # number of UpgradeReq MSHR misses
system.l3.ReadExReq_mshr_misses::cpu.data           79                       # number of ReadExReq MSHR misses
system.l3.ReadExReq_mshr_misses::total             79                       # number of ReadExReq MSHR misses
system.l3.ReadSharedReq_mshr_misses::cpu.inst          229                       # number of ReadSharedReq MSHR misses
system.l3.ReadSharedReq_mshr_misses::cpu.data           56                       # number of ReadSharedReq MSHR misses
system.l3.ReadSharedReq_mshr_misses::total          285                       # number of ReadSharedReq MSHR misses
system.l3.demand_mshr_misses::cpu.inst            229                       # number of demand (read+write) MSHR misses
system.l3.demand_mshr_misses::cpu.data            135                       # number of demand (read+write) MSHR misses
system.l3.demand_mshr_misses::total               364                       # number of demand (read+write) MSHR misses
system.l3.overall_mshr_misses::cpu.inst           229                       # number of overall MSHR misses
system.l3.overall_mshr_misses::cpu.data           135                       # number of overall MSHR misses
system.l3.overall_mshr_misses::total              364                       # number of overall MSHR misses
system.l3.UpgradeReq_mshr_miss_latency::cpu.data      1505500                       # number of UpgradeReq MSHR miss cycles
system.l3.UpgradeReq_mshr_miss_latency::total      1505500                       # number of UpgradeReq MSHR miss cycles
system.l3.ReadExReq_mshr_miss_latency::cpu.data     29256000                       # number of ReadExReq MSHR miss cycles
system.l3.ReadExReq_mshr_miss_latency::total     29256000                       # number of ReadExReq MSHR miss cycles
system.l3.ReadSharedReq_mshr_miss_latency::cpu.inst     68445500                       # number of ReadSharedReq MSHR miss cycles
system.l3.ReadSharedReq_mshr_miss_latency::cpu.data     15852500                       # number of ReadSharedReq MSHR miss cycles
system.l3.ReadSharedReq_mshr_miss_latency::total     84298000                       # number of ReadSharedReq MSHR miss cycles
system.l3.demand_mshr_miss_latency::cpu.inst     68445500                       # number of demand (read+write) MSHR miss cycles
system.l3.demand_mshr_miss_latency::cpu.data     45108500                       # number of demand (read+write) MSHR miss cycles
system.l3.demand_mshr_miss_latency::total    113554000                       # number of demand (read+write) MSHR miss cycles
system.l3.overall_mshr_miss_latency::cpu.inst     68445500                       # number of overall MSHR miss cycles
system.l3.overall_mshr_miss_latency::cpu.data     45108500                       # number of overall MSHR miss cycles
system.l3.overall_mshr_miss_latency::total    113554000                       # number of overall MSHR miss cycles
system.l3.UpgradeReq_mshr_miss_rate::cpu.data     0.369458                       # mshr miss rate for UpgradeReq accesses
system.l3.UpgradeReq_mshr_miss_rate::total     0.369458                       # mshr miss rate for UpgradeReq accesses
system.l3.ReadExReq_mshr_miss_rate::cpu.data            1                       # mshr miss rate for ReadExReq accesses
system.l3.ReadExReq_mshr_miss_rate::total            1                       # mshr miss rate for ReadExReq accesses
system.l3.ReadSharedReq_mshr_miss_rate::cpu.inst            1                       # mshr miss rate for ReadSharedReq accesses
system.l3.ReadSharedReq_mshr_miss_rate::cpu.data            1                       # mshr miss rate for ReadSharedReq accesses
system.l3.ReadSharedReq_mshr_miss_rate::total            1                       # mshr miss rate for ReadSharedReq accesses
system.l3.demand_mshr_miss_rate::cpu.inst            1                       # mshr miss rate for demand accesses
system.l3.demand_mshr_miss_rate::cpu.data            1                       # mshr miss rate for demand accesses
system.l3.demand_mshr_miss_rate::total              1                       # mshr miss rate for demand accesses
system.l3.overall_mshr_miss_rate::cpu.inst            1                       # mshr miss rate for overall accesses
system.l3.overall_mshr_miss_rate::cpu.data            1                       # mshr miss rate for overall accesses
system.l3.overall_mshr_miss_rate::total             1                       # mshr miss rate for overall accesses
system.l3.UpgradeReq_avg_mshr_miss_latency::cpu.data 20073.333333                       # average UpgradeReq mshr miss latency
system.l3.UpgradeReq_avg_mshr_miss_latency::total 20073.333333                       # average UpgradeReq mshr miss latency
system.l3.ReadExReq_avg_mshr_miss_latency::cpu.data 370329.113924                       # average ReadExReq mshr miss latency
system.l3.ReadExReq_avg_mshr_miss_latency::total 370329.113924                       # average ReadExReq mshr miss latency
system.l3.ReadSharedReq_avg_mshr_miss_latency::cpu.inst 298888.646288                       # average ReadSharedReq mshr miss latency
system.l3.ReadSharedReq_avg_mshr_miss_latency::cpu.data 283080.357143                       # average ReadSharedReq mshr miss latency
system.l3.ReadSharedReq_avg_mshr_miss_latency::total 295782.456140                       # average ReadSharedReq mshr miss latency
system.l3.demand_avg_mshr_miss_latency::cpu.inst 298888.646288                       # average overall mshr miss latency
system.l3.demand_avg_mshr_miss_latency::cpu.data 334137.037037                       # average overall mshr miss latency
system.l3.demand_avg_mshr_miss_latency::total 311961.538462                       # average overall mshr miss latency
system.l3.overall_avg_mshr_miss_latency::cpu.inst 298888.646288                       # average overall mshr miss latency
system.l3.overall_avg_mshr_miss_latency::cpu.data 334137.037037                       # average overall mshr miss latency
system.l3.overall_avg_mshr_miss_latency::total 311961.538462                       # average overall mshr miss latency
system.l3.replacements                              0                       # number of replacements
system.membus.snoop_filter.tot_requests           439                       # Total number of requests made to the snoop filter.
system.membus.snoop_filter.hit_single_requests           75                       # Number of requests hitting in the snoop filter with a single holder of the requested data.
system.membus.snoop_filter.hit_multi_requests            0                       # Number of requests hitting in the snoop filter with multiple (>1) holders of the requested data.
system.membus.snoop_filter.tot_snoops               0                       # Total number of snoops made to the snoop filter.
system.membus.snoop_filter.hit_single_snoops            0                       # Number of snoops hitting in the snoop filter with a single holder of the requested data.
system.membus.snoop_filter.hit_multi_snoops            0                       # Number of snoops hitting in the snoop filter with multiple (>1) holders of the requested data.
system.membus.pwrStateResidencyTicks::UNDEFINED    146027000                       # Cumulative time (in ticks) in various power states
system.membus.trans_dist::ReadResp                285                       # Transaction distribution
system.membus.trans_dist::WriteClean              128                       # Transaction distribution
system.membus.trans_dist::UpgradeReq               75                       # Transaction distribution
system.membus.trans_dist::ReadExReq                79                       # Transaction distribution
system.membus.trans_dist::ReadExResp               79                       # Transaction distribution
system.membus.trans_dist::ReadSharedReq           285                       # Transaction distribution
system.membus.pkt_count_system.l3.mem_side::system.mem_ctrls.port          931                       # Packet count per connected master and slave (bytes)
system.membus.pkt_count_system.l3.mem_side::total          931                       # Packet count per connected master and slave (bytes)
system.membus.pkt_count::total                    931                       # Packet count per connected master and slave (bytes)
system.membus.pkt_size_system.l3.mem_side::system.mem_ctrls.port        31488                       # Cumulative packet size per connected master and slave (bytes)
system.membus.pkt_size_system.l3.mem_side::total        31488                       # Cumulative packet size per connected master and slave (bytes)
system.membus.pkt_size::total                   31488                       # Cumulative packet size per connected master and slave (bytes)
system.membus.snoops                                0                       # Total snoops (count)
system.membus.snoopTraffic                          0                       # Total snoop traffic (bytes)
system.membus.snoop_fanout::samples               439                       # Request fanout histogram
system.membus.snoop_fanout::mean                    0                       # Request fanout histogram
system.membus.snoop_fanout::stdev                   0                       # Request fanout histogram
system.membus.snoop_fanout::underflows              0      0.00%      0.00% # Request fanout histogram
system.membus.snoop_fanout::0                     439    100.00%    100.00% # Request fanout histogram
system.membus.snoop_fanout::1                       0      0.00%    100.00% # Request fanout histogram
system.membus.snoop_fanout::overflows               0      0.00%    100.00% # Request fanout histogram
system.membus.snoop_fanout::min_value               0                       # Request fanout histogram
system.membus.snoop_fanout::max_value               0                       # Request fanout histogram
system.membus.snoop_fanout::total                 439                       # Request fanout histogram
system.membus.reqLayer2.occupancy             1125000                       # Layer occupancy (ticks)
system.membus.reqLayer2.utilization               0.8                       # Layer utilization (%)
system.membus.respLayer1.occupancy            1830500                       # Layer occupancy (ticks)
system.membus.respLayer1.utilization              1.3                       # Layer utilization (%)
system.tol2bus.snoop_filter.tot_requests          843                       # Total number of requests made to the snoop filter.
system.tol2bus.snoop_filter.hit_single_requests          479                       # Number of requests hitting in the snoop filter with a single holder of the requested data.
system.tol2bus.snoop_filter.hit_multi_requests            0                       # Number of requests hitting in the snoop filter with multiple (>1) holders of the requested data.
system.tol2bus.snoop_filter.tot_snoops            391                       # Total number of snoops made to the snoop filter.
system.tol2bus.snoop_filter.hit_single_snoops          390                       # Number of snoops hitting in the snoop filter with a single holder of the requested data.
system.tol2bus.snoop_filter.hit_multi_snoops            1                       # Number of snoops hitting in the snoop filter with multiple (>1) holders of the requested data.
system.tol2bus.pwrStateResidencyTicks::UNDEFINED    146027000                       # Cumulative time (in ticks) in various power states
system.tol2bus.trans_dist::ReadResp               286                       # Transaction distribution
system.tol2bus.trans_dist::WritebackClean           13                       # Transaction distribution
system.tol2bus.trans_dist::WriteClean             962                       # Transaction distribution
system.tol2bus.trans_dist::UpgradeReq             465                       # Transaction distribution
system.tol2bus.trans_dist::UpgradeResp            465                       # Transaction distribution
system.tol2bus.trans_dist::ReadExReq               79                       # Transaction distribution
system.tol2bus.trans_dist::ReadExResp              79                       # Transaction distribution
system.tol2bus.trans_dist::ReadCleanReq           230                       # Transaction distribution
system.tol2bus.trans_dist::ReadSharedReq           56                       # Transaction distribution
system.tol2bus.pkt_count_system.cpu.icache.mem_side::system.l2.cpu_side          473                       # Packet count per connected master and slave (bytes)
system.tol2bus.pkt_count_system.cpu.dcache.mem_side::system.l2.cpu_side         1771                       # Packet count per connected master and slave (bytes)
system.tol2bus.pkt_count::total                  2244                       # Packet count per connected master and slave (bytes)
system.tol2bus.pkt_size_system.cpu.icache.mem_side::system.l2.cpu_side        15552                       # Cumulative packet size per connected master and slave (bytes)
system.tol2bus.pkt_size_system.cpu.dcache.mem_side::system.l2.cpu_side        45184                       # Cumulative packet size per connected master and slave (bytes)
system.tol2bus.pkt_size::total                  60736                       # Cumulative packet size per connected master and slave (bytes)
system.tol2bus.snoops                             391                       # Total snoops (count)
system.tol2bus.snoopTraffic                     25024                       # Total snoop traffic (bytes)
system.tol2bus.snoop_fanout::samples             1221                       # Request fanout histogram
system.tol2bus.snoop_fanout::mean            0.321867                       # Request fanout histogram
system.tol2bus.snoop_fanout::stdev           0.469134                       # Request fanout histogram
system.tol2bus.snoop_fanout::underflows             0      0.00%      0.00% # Request fanout histogram
system.tol2bus.snoop_fanout::0                    829     67.90%     67.90% # Request fanout histogram
system.tol2bus.snoop_fanout::1                    391     32.02%     99.92% # Request fanout histogram
system.tol2bus.snoop_fanout::2                      1      0.08%    100.00% # Request fanout histogram
system.tol2bus.snoop_fanout::3                      0      0.00%    100.00% # Request fanout histogram
system.tol2bus.snoop_fanout::4                      0      0.00%    100.00% # Request fanout histogram
system.tol2bus.snoop_fanout::overflows              0      0.00%    100.00% # Request fanout histogram
system.tol2bus.snoop_fanout::min_value              0                       # Request fanout histogram
system.tol2bus.snoop_fanout::max_value              2                       # Request fanout histogram
system.tol2bus.snoop_fanout::total               1221                       # Request fanout histogram
system.tol2bus.reqLayer0.occupancy            1291000                       # Layer occupancy (ticks)
system.tol2bus.reqLayer0.utilization              0.9                       # Layer utilization (%)
system.tol2bus.respLayer0.occupancy            345000                       # Layer occupancy (ticks)
system.tol2bus.respLayer0.utilization             0.2                       # Layer utilization (%)
system.tol2bus.respLayer1.occupancy            435000                       # Layer occupancy (ticks)
system.tol2bus.respLayer1.utilization             0.3                       # Layer utilization (%)
system.tol3bus.snoop_filter.tot_requests          567                       # Total number of requests made to the snoop filter.
system.tol3bus.snoop_filter.hit_single_requests          203                       # Number of requests hitting in the snoop filter with a single holder of the requested data.
system.tol3bus.snoop_filter.hit_multi_requests            0                       # Number of requests hitting in the snoop filter with multiple (>1) holders of the requested data.
system.tol3bus.snoop_filter.tot_snoops            128                       # Total number of snoops made to the snoop filter.
system.tol3bus.snoop_filter.hit_single_snoops          128                       # Number of snoops hitting in the snoop filter with a single holder of the requested data.
system.tol3bus.snoop_filter.hit_multi_snoops            0                       # Number of snoops hitting in the snoop filter with multiple (>1) holders of the requested data.
system.tol3bus.pwrStateResidencyTicks::UNDEFINED    146027000                       # Cumulative time (in ticks) in various power states
system.tol3bus.trans_dist::ReadResp               285                       # Transaction distribution
system.tol3bus.trans_dist::WriteClean             391                       # Transaction distribution
system.tol3bus.trans_dist::UpgradeReq             203                       # Transaction distribution
system.tol3bus.trans_dist::UpgradeResp            203                       # Transaction distribution
system.tol3bus.trans_dist::ReadExReq               79                       # Transaction distribution
system.tol3bus.trans_dist::ReadExResp              79                       # Transaction distribution
system.tol3bus.trans_dist::ReadSharedReq          285                       # Transaction distribution
system.tol3bus.pkt_count_system.l2.mem_side::system.l3.cpu_side         1397                       # Packet count per connected master and slave (bytes)
system.tol3bus.pkt_size_system.l2.mem_side::system.l3.cpu_side        40128                       # Cumulative packet size per connected master and slave (bytes)
system.tol3bus.snoops                             128                       # Total snoops (count)
system.tol3bus.snoopTraffic                      8192                       # Total snoop traffic (bytes)
system.tol3bus.snoop_fanout::samples              695                       # Request fanout histogram
system.tol3bus.snoop_fanout::mean            0.184173                       # Request fanout histogram
system.tol3bus.snoop_fanout::stdev           0.387904                       # Request fanout histogram
system.tol3bus.snoop_fanout::underflows             0      0.00%      0.00% # Request fanout histogram
system.tol3bus.snoop_fanout::0                    567     81.58%     81.58% # Request fanout histogram
system.tol3bus.snoop_fanout::1                    128     18.42%    100.00% # Request fanout histogram
system.tol3bus.snoop_fanout::overflows              0      0.00%    100.00% # Request fanout histogram
system.tol3bus.snoop_fanout::min_value              0                       # Request fanout histogram
system.tol3bus.snoop_fanout::max_value              1                       # Request fanout histogram
system.tol3bus.snoop_fanout::total                695                       # Request fanout histogram
system.tol3bus.reqLayer0.occupancy             678000                       # Layer occupancy (ticks)
system.tol3bus.reqLayer0.utilization              0.5                       # Layer utilization (%)
system.tol3bus.respLayer0.occupancy            647500                       # Layer occupancy (ticks)
system.tol3bus.respLayer0.utilization             0.4                       # Layer utilization (%)

---------- End Simulation Statistics   ----------
