
---------- Begin Simulation Statistics ----------
sim_seconds                                  0.092112                       # Number of seconds simulated
sim_ticks                                 92111996000                       # Number of ticks simulated
final_tick                                92111996000                       # Number of ticks from beginning of simulation (restored from checkpoints and never reset)
sim_freq                                 1000000000000                       # Frequency of simulated ticks
host_inst_rate                                1124975                       # Simulator instruction rate (inst/s)
host_op_rate                                  1852294                       # Simulator op (including micro ops) rate (op/s)
host_tick_rate                             2323937214                       # Simulator tick rate (ticks/s)
host_mem_usage                                 660144                       # Number of bytes of host memory used
host_seconds                                    39.64                       # Real time elapsed on the host
sim_insts                                    44589711                       # Number of instructions simulated
sim_ops                                      73417858                       # Number of ops (including micro ops) simulated
system.voltage_domain.voltage                       1                       # Voltage in Volts
system.clk_domain.clock                          1000                       # Clock period in ticks
system.mem_ctrls.pwrStateResidencyTicks::UNDEFINED  92111996000                       # Cumulative time (in ticks) in various power states
system.mem_ctrls.bytes_read::cpu.inst           22656                       # Number of bytes read from this memory
system.mem_ctrls.bytes_read::cpu.data         1101056                       # Number of bytes read from this memory
system.mem_ctrls.bytes_read::total            1123712                       # Number of bytes read from this memory
system.mem_ctrls.bytes_inst_read::cpu.inst        22656                       # Number of instructions bytes read from this memory
system.mem_ctrls.bytes_inst_read::total         22656                       # Number of instructions bytes read from this memory
system.mem_ctrls.bytes_written::writebacks       840256                       # Number of bytes written to this memory
system.mem_ctrls.bytes_written::total          840256                       # Number of bytes written to this memory
system.mem_ctrls.num_reads::cpu.inst              354                       # Number of read requests responded to by this memory
system.mem_ctrls.num_reads::cpu.data            17204                       # Number of read requests responded to by this memory
system.mem_ctrls.num_reads::total               17558                       # Number of read requests responded to by this memory
system.mem_ctrls.num_writes::writebacks         13129                       # Number of write requests responded to by this memory
system.mem_ctrls.num_writes::total              13129                       # Number of write requests responded to by this memory
system.mem_ctrls.bw_read::cpu.inst             245961                       # Total read bandwidth from this memory (bytes/s)
system.mem_ctrls.bw_read::cpu.data           11953448                       # Total read bandwidth from this memory (bytes/s)
system.mem_ctrls.bw_read::total              12199410                       # Total read bandwidth from this memory (bytes/s)
system.mem_ctrls.bw_inst_read::cpu.inst        245961                       # Instruction read bandwidth from this memory (bytes/s)
system.mem_ctrls.bw_inst_read::total           245961                       # Instruction read bandwidth from this memory (bytes/s)
system.mem_ctrls.bw_write::writebacks         9122113                       # Write bandwidth from this memory (bytes/s)
system.mem_ctrls.bw_write::total              9122113                       # Write bandwidth from this memory (bytes/s)
system.mem_ctrls.bw_total::writebacks         9122113                       # Total bandwidth to/from this memory (bytes/s)
system.mem_ctrls.bw_total::cpu.inst            245961                       # Total bandwidth to/from this memory (bytes/s)
system.mem_ctrls.bw_total::cpu.data          11953448                       # Total bandwidth to/from this memory (bytes/s)
system.mem_ctrls.bw_total::total             21321523                       # Total bandwidth to/from this memory (bytes/s)
system.pwrStateResidencyTicks::UNDEFINED  92111996000                       # Cumulative time (in ticks) in various power states
system.cpu_voltage_domain.voltage                   1                       # Voltage in Volts
system.cpu_clk_domain.clock                       500                       # Clock period in ticks
system.cpu.dtb.walker.pwrStateResidencyTicks::UNDEFINED  92111996000                       # Cumulative time (in ticks) in various power states
system.cpu.dtb.rdAccesses                    20877750                       # TLB accesses on read requests
system.cpu.dtb.wrAccesses                     5816541                       # TLB accesses on write requests
system.cpu.dtb.rdMisses                           166                       # TLB misses on read requests
system.cpu.dtb.wrMisses                           106                       # TLB misses on write requests
system.cpu.apic_clk_domain.clock                 8000                       # Clock period in ticks
system.cpu.interrupts.pwrStateResidencyTicks::UNDEFINED  92111996000                       # Cumulative time (in ticks) in various power states
system.cpu.itb.walker.pwrStateResidencyTicks::UNDEFINED  92111996000                       # Cumulative time (in ticks) in various power states
system.cpu.itb.rdAccesses                           0                       # TLB accesses on read requests
system.cpu.itb.wrAccesses                    59916902                       # TLB accesses on write requests
system.cpu.itb.rdMisses                             0                       # TLB misses on read requests
system.cpu.itb.wrMisses                            36                       # TLB misses on write requests
system.cpu.workload.numSyscalls                     9                       # Number of system calls
system.cpu.pwrStateResidencyTicks::ON     92111996000                       # Cumulative time (in ticks) in various power states
system.cpu.numCycles                        184223992                       # number of cpu cycles simulated
system.cpu.numWorkItemsStarted                      0                       # number of work items this cpu started
system.cpu.numWorkItemsCompleted                    0                       # number of work items this cpu completed
system.cpu.committedInsts                    44589711                       # Number of instructions committed
system.cpu.committedOps                      73417858                       # Number of ops (including micro ops) committed
system.cpu.num_int_alu_accesses              72895934                       # Number of integer alu accesses
system.cpu.num_fp_alu_accesses                   1967                       # Number of float alu accesses
system.cpu.num_vec_alu_accesses                     0                       # Number of vector alu accesses
system.cpu.num_func_calls                      944900                       # number of times a function call or return occured
system.cpu.num_conditional_control_insts      4232452                       # number of instructions that are conditional controls
system.cpu.num_int_insts                     72895934                       # number of integer instructions
system.cpu.num_fp_insts                          1967                       # number of float instructions
system.cpu.num_vec_insts                            0                       # number of vector instructions
system.cpu.num_int_register_reads           163691607                       # number of times the integer registers were read
system.cpu.num_int_register_writes           63686401                       # number of times the integer registers were written
system.cpu.num_fp_register_reads                 3779                       # number of times the floating registers were read
system.cpu.num_fp_register_writes                1492                       # number of times the floating registers were written
system.cpu.num_vec_register_reads                   0                       # number of times the vector registers were read
system.cpu.num_vec_register_writes                  0                       # number of times the vector registers were written
system.cpu.num_cc_register_reads             27636615                       # number of times the CC registers were read
system.cpu.num_cc_register_writes            24933069                       # number of times the CC registers were written
system.cpu.num_mem_refs                      26694285                       # number of memory refs
system.cpu.num_load_insts                    20877745                       # Number of load instructions
system.cpu.num_store_insts                    5816540                       # Number of store instructions
system.cpu.num_idle_cycles                          0                       # Number of idle cycles
system.cpu.num_busy_cycles                  184223992                       # Number of busy cycles
system.cpu.not_idle_fraction                        1                       # Percentage of non-idle cycles
system.cpu.idle_fraction                            0                       # Percentage of idle cycles
system.cpu.Branches                           5574736                       # Number of branches fetched
system.cpu.op_class::No_OpClass                175846      0.24%      0.24% # Class of executed instruction
system.cpu.op_class::IntAlu                  45543769     62.03%     62.27% # Class of executed instruction
system.cpu.op_class::IntMult                        4      0.00%     62.27% # Class of executed instruction
system.cpu.op_class::IntDiv                   1002994      1.37%     63.64% # Class of executed instruction
system.cpu.op_class::FloatAdd                      10      0.00%     63.64% # Class of executed instruction
system.cpu.op_class::FloatCmp                       0      0.00%     63.64% # Class of executed instruction
system.cpu.op_class::FloatCvt                       0      0.00%     63.64% # Class of executed instruction
system.cpu.op_class::FloatMult                      0      0.00%     63.64% # Class of executed instruction
system.cpu.op_class::FloatMultAcc                   0      0.00%     63.64% # Class of executed instruction
system.cpu.op_class::FloatDiv                       0      0.00%     63.64% # Class of executed instruction
system.cpu.op_class::FloatMisc                      0      0.00%     63.64% # Class of executed instruction
system.cpu.op_class::FloatSqrt                      0      0.00%     63.64% # Class of executed instruction
system.cpu.op_class::SimdAdd                      374      0.00%     63.64% # Class of executed instruction
system.cpu.op_class::SimdAddAcc                     0      0.00%     63.64% # Class of executed instruction
system.cpu.op_class::SimdAlu                       68      0.00%     63.64% # Class of executed instruction
system.cpu.op_class::SimdCmp                        0      0.00%     63.64% # Class of executed instruction
system.cpu.op_class::SimdCvt                      108      0.00%     63.64% # Class of executed instruction
system.cpu.op_class::SimdMisc                     214      0.00%     63.64% # Class of executed instruction
system.cpu.op_class::SimdMult                       0      0.00%     63.64% # Class of executed instruction
system.cpu.op_class::SimdMultAcc                    0      0.00%     63.64% # Class of executed instruction
system.cpu.op_class::SimdShift                    186      0.00%     63.64% # Class of executed instruction
system.cpu.op_class::SimdShiftAcc                   0      0.00%     63.64% # Class of executed instruction
system.cpu.op_class::SimdSqrt                       0      0.00%     63.64% # Class of executed instruction
system.cpu.op_class::SimdFloatAdd                   0      0.00%     63.64% # Class of executed instruction
system.cpu.op_class::SimdFloatAlu                   0      0.00%     63.64% # Class of executed instruction
system.cpu.op_class::SimdFloatCmp                   0      0.00%     63.64% # Class of executed instruction
system.cpu.op_class::SimdFloatCvt                   0      0.00%     63.64% # Class of executed instruction
system.cpu.op_class::SimdFloatDiv                   0      0.00%     63.64% # Class of executed instruction
system.cpu.op_class::SimdFloatMisc                  0      0.00%     63.64% # Class of executed instruction
system.cpu.op_class::SimdFloatMult                  0      0.00%     63.64% # Class of executed instruction
system.cpu.op_class::SimdFloatMultAcc               0      0.00%     63.64% # Class of executed instruction
system.cpu.op_class::SimdFloatSqrt                  0      0.00%     63.64% # Class of executed instruction
system.cpu.op_class::MemRead                 20877677     28.44%     92.08% # Class of executed instruction
system.cpu.op_class::MemWrite                 5816113      7.92%    100.00% # Class of executed instruction
system.cpu.op_class::FloatMemRead                  68      0.00%    100.00% # Class of executed instruction
system.cpu.op_class::FloatMemWrite                427      0.00%    100.00% # Class of executed instruction
system.cpu.op_class::IprAccess                      0      0.00%    100.00% # Class of executed instruction
system.cpu.op_class::InstPrefetch                   0      0.00%    100.00% # Class of executed instruction
system.cpu.op_class::total                   73417858                       # Class of executed instruction
system.cpu.dcache.tags.pwrStateResidencyTicks::UNDEFINED  92111996000                       # Cumulative time (in ticks) in various power states
system.cpu.dcache.tags.tagsinuse           510.054601                       # Cycle average of tags in use
system.cpu.dcache.tags.total_refs            26694291                       # Total number of references to valid blocks.
system.cpu.dcache.tags.sampled_refs             45430                       # Sample count of references to valid blocks.
system.cpu.dcache.tags.avg_refs            587.591702                       # Average number of references to valid blocks.
system.cpu.dcache.tags.warmup_cycle            759000                       # Cycle when the warmup percentage was hit.
system.cpu.dcache.tags.occ_blocks::cpu.data   510.054601                       # Average occupied blocks per requestor
system.cpu.dcache.tags.occ_percent::cpu.data     0.996200                       # Average percentage of cache occupancy
system.cpu.dcache.tags.occ_percent::total     0.996200                       # Average percentage of cache occupancy
system.cpu.dcache.tags.occ_task_id_blocks::1024          512                       # Occupied blocks per task id
system.cpu.dcache.tags.age_task_id_blocks_1024::0           11                       # Occupied blocks per task id
system.cpu.dcache.tags.age_task_id_blocks_1024::1           16                       # Occupied blocks per task id
system.cpu.dcache.tags.age_task_id_blocks_1024::2           33                       # Occupied blocks per task id
system.cpu.dcache.tags.age_task_id_blocks_1024::3          450                       # Occupied blocks per task id
system.cpu.dcache.tags.age_task_id_blocks_1024::4            2                       # Occupied blocks per task id
system.cpu.dcache.tags.occ_task_id_percent::1024            1                       # Percentage of cache occupancy per task id
system.cpu.dcache.tags.tag_accesses          53434012                       # Number of tag accesses
system.cpu.dcache.tags.data_accesses         53434012                       # Number of data accesses
system.cpu.dcache.pwrStateResidencyTicks::UNDEFINED  92111996000                       # Cumulative time (in ticks) in various power states
system.cpu.dcache.ReadReq_hits::cpu.data     20839019                       # number of ReadReq hits
system.cpu.dcache.ReadReq_hits::total        20839019                       # number of ReadReq hits
system.cpu.dcache.WriteReq_hits::cpu.data      5804019                       # number of WriteReq hits
system.cpu.dcache.WriteReq_hits::total        5804019                       # number of WriteReq hits
system.cpu.dcache.demand_hits::cpu.data      26643038                       # number of demand (read+write) hits
system.cpu.dcache.demand_hits::total         26643038                       # number of demand (read+write) hits
system.cpu.dcache.overall_hits::cpu.data     26643038                       # number of overall hits
system.cpu.dcache.overall_hits::total        26643038                       # number of overall hits
system.cpu.dcache.ReadReq_misses::cpu.data        38731                       # number of ReadReq misses
system.cpu.dcache.ReadReq_misses::total         38731                       # number of ReadReq misses
system.cpu.dcache.WriteReq_misses::cpu.data        12522                       # number of WriteReq misses
system.cpu.dcache.WriteReq_misses::total        12522                       # number of WriteReq misses
system.cpu.dcache.demand_misses::cpu.data        51253                       # number of demand (read+write) misses
system.cpu.dcache.demand_misses::total          51253                       # number of demand (read+write) misses
system.cpu.dcache.overall_misses::cpu.data        51253                       # number of overall misses
system.cpu.dcache.overall_misses::total         51253                       # number of overall misses
system.cpu.dcache.ReadReq_miss_latency::cpu.data   4205022000                       # number of ReadReq miss cycles
system.cpu.dcache.ReadReq_miss_latency::total   4205022000                       # number of ReadReq miss cycles
system.cpu.dcache.WriteReq_miss_latency::cpu.data   1274357000                       # number of WriteReq miss cycles
system.cpu.dcache.WriteReq_miss_latency::total   1274357000                       # number of WriteReq miss cycles
system.cpu.dcache.demand_miss_latency::cpu.data   5479379000                       # number of demand (read+write) miss cycles
system.cpu.dcache.demand_miss_latency::total   5479379000                       # number of demand (read+write) miss cycles
system.cpu.dcache.overall_miss_latency::cpu.data   5479379000                       # number of overall miss cycles
system.cpu.dcache.overall_miss_latency::total   5479379000                       # number of overall miss cycles
system.cpu.dcache.ReadReq_accesses::cpu.data     20877750                       # number of ReadReq accesses(hits+misses)
system.cpu.dcache.ReadReq_accesses::total     20877750                       # number of ReadReq accesses(hits+misses)
system.cpu.dcache.WriteReq_accesses::cpu.data      5816541                       # number of WriteReq accesses(hits+misses)
system.cpu.dcache.WriteReq_accesses::total      5816541                       # number of WriteReq accesses(hits+misses)
system.cpu.dcache.demand_accesses::cpu.data     26694291                       # number of demand (read+write) accesses
system.cpu.dcache.demand_accesses::total     26694291                       # number of demand (read+write) accesses
system.cpu.dcache.overall_accesses::cpu.data     26694291                       # number of overall (read+write) accesses
system.cpu.dcache.overall_accesses::total     26694291                       # number of overall (read+write) accesses
system.cpu.dcache.ReadReq_miss_rate::cpu.data     0.001855                       # miss rate for ReadReq accesses
system.cpu.dcache.ReadReq_miss_rate::total     0.001855                       # miss rate for ReadReq accesses
system.cpu.dcache.WriteReq_miss_rate::cpu.data     0.002153                       # miss rate for WriteReq accesses
system.cpu.dcache.WriteReq_miss_rate::total     0.002153                       # miss rate for WriteReq accesses
system.cpu.dcache.demand_miss_rate::cpu.data     0.001920                       # miss rate for demand accesses
system.cpu.dcache.demand_miss_rate::total     0.001920                       # miss rate for demand accesses
system.cpu.dcache.overall_miss_rate::cpu.data     0.001920                       # miss rate for overall accesses
system.cpu.dcache.overall_miss_rate::total     0.001920                       # miss rate for overall accesses
system.cpu.dcache.ReadReq_avg_miss_latency::cpu.data 108569.931063                       # average ReadReq miss latency
system.cpu.dcache.ReadReq_avg_miss_latency::total 108569.931063                       # average ReadReq miss latency
system.cpu.dcache.WriteReq_avg_miss_latency::cpu.data 101769.445775                       # average WriteReq miss latency
system.cpu.dcache.WriteReq_avg_miss_latency::total 101769.445775                       # average WriteReq miss latency
system.cpu.dcache.demand_avg_miss_latency::cpu.data 106908.454139                       # average overall miss latency
system.cpu.dcache.demand_avg_miss_latency::total 106908.454139                       # average overall miss latency
system.cpu.dcache.overall_avg_miss_latency::cpu.data 106908.454139                       # average overall miss latency
system.cpu.dcache.overall_avg_miss_latency::total 106908.454139                       # average overall miss latency
system.cpu.dcache.blocked_cycles::no_mshrs            0                       # number of cycles access was blocked
system.cpu.dcache.blocked_cycles::no_targets            0                       # number of cycles access was blocked
system.cpu.dcache.blocked::no_mshrs                 0                       # number of cycles access was blocked
system.cpu.dcache.blocked::no_targets               0                       # number of cycles access was blocked
system.cpu.dcache.avg_blocked_cycles::no_mshrs          nan                       # average number of cycles each access was blocked
system.cpu.dcache.avg_blocked_cycles::no_targets          nan                       # average number of cycles each access was blocked
system.cpu.dcache.writebacks::writebacks        43419                       # number of writebacks
system.cpu.dcache.writebacks::total             43419                       # number of writebacks
system.cpu.dcache.ReadReq_mshr_misses::cpu.data        38731                       # number of ReadReq MSHR misses
system.cpu.dcache.ReadReq_mshr_misses::total        38731                       # number of ReadReq MSHR misses
system.cpu.dcache.WriteReq_mshr_misses::cpu.data        12522                       # number of WriteReq MSHR misses
system.cpu.dcache.WriteReq_mshr_misses::total        12522                       # number of WriteReq MSHR misses
system.cpu.dcache.demand_mshr_misses::cpu.data        51253                       # number of demand (read+write) MSHR misses
system.cpu.dcache.demand_mshr_misses::total        51253                       # number of demand (read+write) MSHR misses
system.cpu.dcache.overall_mshr_misses::cpu.data        51253                       # number of overall MSHR misses
system.cpu.dcache.overall_mshr_misses::total        51253                       # number of overall MSHR misses
system.cpu.dcache.ReadReq_mshr_miss_latency::cpu.data   4166291000                       # number of ReadReq MSHR miss cycles
system.cpu.dcache.ReadReq_mshr_miss_latency::total   4166291000                       # number of ReadReq MSHR miss cycles
system.cpu.dcache.WriteReq_mshr_miss_latency::cpu.data   1261835000                       # number of WriteReq MSHR miss cycles
system.cpu.dcache.WriteReq_mshr_miss_latency::total   1261835000                       # number of WriteReq MSHR miss cycles
system.cpu.dcache.demand_mshr_miss_latency::cpu.data   5428126000                       # number of demand (read+write) MSHR miss cycles
system.cpu.dcache.demand_mshr_miss_latency::total   5428126000                       # number of demand (read+write) MSHR miss cycles
system.cpu.dcache.overall_mshr_miss_latency::cpu.data   5428126000                       # number of overall MSHR miss cycles
system.cpu.dcache.overall_mshr_miss_latency::total   5428126000                       # number of overall MSHR miss cycles
system.cpu.dcache.ReadReq_mshr_miss_rate::cpu.data     0.001855                       # mshr miss rate for ReadReq accesses
system.cpu.dcache.ReadReq_mshr_miss_rate::total     0.001855                       # mshr miss rate for ReadReq accesses
system.cpu.dcache.WriteReq_mshr_miss_rate::cpu.data     0.002153                       # mshr miss rate for WriteReq accesses
system.cpu.dcache.WriteReq_mshr_miss_rate::total     0.002153                       # mshr miss rate for WriteReq accesses
system.cpu.dcache.demand_mshr_miss_rate::cpu.data     0.001920                       # mshr miss rate for demand accesses
system.cpu.dcache.demand_mshr_miss_rate::total     0.001920                       # mshr miss rate for demand accesses
system.cpu.dcache.overall_mshr_miss_rate::cpu.data     0.001920                       # mshr miss rate for overall accesses
system.cpu.dcache.overall_mshr_miss_rate::total     0.001920                       # mshr miss rate for overall accesses
system.cpu.dcache.ReadReq_avg_mshr_miss_latency::cpu.data 107569.931063                       # average ReadReq mshr miss latency
system.cpu.dcache.ReadReq_avg_mshr_miss_latency::total 107569.931063                       # average ReadReq mshr miss latency
system.cpu.dcache.WriteReq_avg_mshr_miss_latency::cpu.data 100769.445775                       # average WriteReq mshr miss latency
system.cpu.dcache.WriteReq_avg_mshr_miss_latency::total 100769.445775                       # average WriteReq mshr miss latency
system.cpu.dcache.demand_avg_mshr_miss_latency::cpu.data 105908.454139                       # average overall mshr miss latency
system.cpu.dcache.demand_avg_mshr_miss_latency::total 105908.454139                       # average overall mshr miss latency
system.cpu.dcache.overall_avg_mshr_miss_latency::cpu.data 105908.454139                       # average overall mshr miss latency
system.cpu.dcache.overall_avg_mshr_miss_latency::total 105908.454139                       # average overall mshr miss latency
system.cpu.dcache.replacements                  44918                       # number of replacements
system.cpu.dtb_walker_cache.tags.pwrStateResidencyTicks::UNDEFINED  92111996000                       # Cumulative time (in ticks) in various power states
system.cpu.dtb_walker_cache.tags.tagsinuse            0                       # Cycle average of tags in use
system.cpu.dtb_walker_cache.tags.total_refs            0                       # Total number of references to valid blocks.
system.cpu.dtb_walker_cache.tags.sampled_refs            0                       # Sample count of references to valid blocks.
system.cpu.dtb_walker_cache.tags.avg_refs          nan                       # Average number of references to valid blocks.
system.cpu.dtb_walker_cache.tags.warmup_cycle            0                       # Cycle when the warmup percentage was hit.
system.cpu.dtb_walker_cache.tags.tag_accesses            0                       # Number of tag accesses
system.cpu.dtb_walker_cache.tags.data_accesses            0                       # Number of data accesses
system.cpu.dtb_walker_cache.pwrStateResidencyTicks::UNDEFINED  92111996000                       # Cumulative time (in ticks) in various power states
system.cpu.dtb_walker_cache.blocked_cycles::no_mshrs            0                       # number of cycles access was blocked
system.cpu.dtb_walker_cache.blocked_cycles::no_targets            0                       # number of cycles access was blocked
system.cpu.dtb_walker_cache.blocked::no_mshrs            0                       # number of cycles access was blocked
system.cpu.dtb_walker_cache.blocked::no_targets            0                       # number of cycles access was blocked
system.cpu.dtb_walker_cache.avg_blocked_cycles::no_mshrs          nan                       # average number of cycles each access was blocked
system.cpu.dtb_walker_cache.avg_blocked_cycles::no_targets          nan                       # average number of cycles each access was blocked
system.cpu.dtb_walker_cache.replacements            0                       # number of replacements
system.cpu.icache.tags.pwrStateResidencyTicks::UNDEFINED  92111996000                       # Cumulative time (in ticks) in various power states
system.cpu.icache.tags.tagsinuse           279.276187                       # Cycle average of tags in use
system.cpu.icache.tags.total_refs            59916902                       # Total number of references to valid blocks.
system.cpu.icache.tags.sampled_refs               354                       # Sample count of references to valid blocks.
system.cpu.icache.tags.avg_refs          169256.785311                       # Average number of references to valid blocks.
system.cpu.icache.tags.warmup_cycle            439000                       # Cycle when the warmup percentage was hit.
system.cpu.icache.tags.occ_blocks::cpu.inst   279.276187                       # Average occupied blocks per requestor
system.cpu.icache.tags.occ_percent::cpu.inst     0.545461                       # Average percentage of cache occupancy
system.cpu.icache.tags.occ_percent::total     0.545461                       # Average percentage of cache occupancy
system.cpu.icache.tags.occ_task_id_blocks::1024          308                       # Occupied blocks per task id
system.cpu.icache.tags.age_task_id_blocks_1024::0           16                       # Occupied blocks per task id
system.cpu.icache.tags.age_task_id_blocks_1024::1           22                       # Occupied blocks per task id
system.cpu.icache.tags.age_task_id_blocks_1024::4          270                       # Occupied blocks per task id
system.cpu.icache.tags.occ_task_id_percent::1024     0.601562                       # Percentage of cache occupancy per task id
system.cpu.icache.tags.tag_accesses         119834158                       # Number of tag accesses
system.cpu.icache.tags.data_accesses        119834158                       # Number of data accesses
system.cpu.icache.pwrStateResidencyTicks::UNDEFINED  92111996000                       # Cumulative time (in ticks) in various power states
system.cpu.icache.ReadReq_hits::cpu.inst     59916548                       # number of ReadReq hits
system.cpu.icache.ReadReq_hits::total        59916548                       # number of ReadReq hits
system.cpu.icache.demand_hits::cpu.inst      59916548                       # number of demand (read+write) hits
system.cpu.icache.demand_hits::total         59916548                       # number of demand (read+write) hits
system.cpu.icache.overall_hits::cpu.inst     59916548                       # number of overall hits
system.cpu.icache.overall_hits::total        59916548                       # number of overall hits
system.cpu.icache.ReadReq_misses::cpu.inst          354                       # number of ReadReq misses
system.cpu.icache.ReadReq_misses::total           354                       # number of ReadReq misses
system.cpu.icache.demand_misses::cpu.inst          354                       # number of demand (read+write) misses
system.cpu.icache.demand_misses::total            354                       # number of demand (read+write) misses
system.cpu.icache.overall_misses::cpu.inst          354                       # number of overall misses
system.cpu.icache.overall_misses::total           354                       # number of overall misses
system.cpu.icache.ReadReq_miss_latency::cpu.inst     73036000                       # number of ReadReq miss cycles
system.cpu.icache.ReadReq_miss_latency::total     73036000                       # number of ReadReq miss cycles
system.cpu.icache.demand_miss_latency::cpu.inst     73036000                       # number of demand (read+write) miss cycles
system.cpu.icache.demand_miss_latency::total     73036000                       # number of demand (read+write) miss cycles
system.cpu.icache.overall_miss_latency::cpu.inst     73036000                       # number of overall miss cycles
system.cpu.icache.overall_miss_latency::total     73036000                       # number of overall miss cycles
system.cpu.icache.ReadReq_accesses::cpu.inst     59916902                       # number of ReadReq accesses(hits+misses)
system.cpu.icache.ReadReq_accesses::total     59916902                       # number of ReadReq accesses(hits+misses)
system.cpu.icache.demand_accesses::cpu.inst     59916902                       # number of demand (read+write) accesses
system.cpu.icache.demand_accesses::total     59916902                       # number of demand (read+write) accesses
system.cpu.icache.overall_accesses::cpu.inst     59916902                       # number of overall (read+write) accesses
system.cpu.icache.overall_accesses::total     59916902                       # number of overall (read+write) accesses
system.cpu.icache.ReadReq_miss_rate::cpu.inst     0.000006                       # miss rate for ReadReq accesses
system.cpu.icache.ReadReq_miss_rate::total     0.000006                       # miss rate for ReadReq accesses
system.cpu.icache.demand_miss_rate::cpu.inst     0.000006                       # miss rate for demand accesses
system.cpu.icache.demand_miss_rate::total     0.000006                       # miss rate for demand accesses
system.cpu.icache.overall_miss_rate::cpu.inst     0.000006                       # miss rate for overall accesses
system.cpu.icache.overall_miss_rate::total     0.000006                       # miss rate for overall accesses
system.cpu.icache.ReadReq_avg_miss_latency::cpu.inst 206316.384181                       # average ReadReq miss latency
system.cpu.icache.ReadReq_avg_miss_latency::total 206316.384181                       # average ReadReq miss latency
system.cpu.icache.demand_avg_miss_latency::cpu.inst 206316.384181                       # average overall miss latency
system.cpu.icache.demand_avg_miss_latency::total 206316.384181                       # average overall miss latency
system.cpu.icache.overall_avg_miss_latency::cpu.inst 206316.384181                       # average overall miss latency
system.cpu.icache.overall_avg_miss_latency::total 206316.384181                       # average overall miss latency
system.cpu.icache.blocked_cycles::no_mshrs            0                       # number of cycles access was blocked
system.cpu.icache.blocked_cycles::no_targets            0                       # number of cycles access was blocked
system.cpu.icache.blocked::no_mshrs                 0                       # number of cycles access was blocked
system.cpu.icache.blocked::no_targets               0                       # number of cycles access was blocked
system.cpu.icache.avg_blocked_cycles::no_mshrs          nan                       # average number of cycles each access was blocked
system.cpu.icache.avg_blocked_cycles::no_targets          nan                       # average number of cycles each access was blocked
system.cpu.icache.writebacks::writebacks           46                       # number of writebacks
system.cpu.icache.writebacks::total                46                       # number of writebacks
system.cpu.icache.ReadReq_mshr_misses::cpu.inst          354                       # number of ReadReq MSHR misses
system.cpu.icache.ReadReq_mshr_misses::total          354                       # number of ReadReq MSHR misses
system.cpu.icache.demand_mshr_misses::cpu.inst          354                       # number of demand (read+write) MSHR misses
system.cpu.icache.demand_mshr_misses::total          354                       # number of demand (read+write) MSHR misses
system.cpu.icache.overall_mshr_misses::cpu.inst          354                       # number of overall MSHR misses
system.cpu.icache.overall_mshr_misses::total          354                       # number of overall MSHR misses
system.cpu.icache.ReadReq_mshr_miss_latency::cpu.inst     72682000                       # number of ReadReq MSHR miss cycles
system.cpu.icache.ReadReq_mshr_miss_latency::total     72682000                       # number of ReadReq MSHR miss cycles
system.cpu.icache.demand_mshr_miss_latency::cpu.inst     72682000                       # number of demand (read+write) MSHR miss cycles
system.cpu.icache.demand_mshr_miss_latency::total     72682000                       # number of demand (read+write) MSHR miss cycles
system.cpu.icache.overall_mshr_miss_latency::cpu.inst     72682000                       # number of overall MSHR miss cycles
system.cpu.icache.overall_mshr_miss_latency::total     72682000                       # number of overall MSHR miss cycles
system.cpu.icache.ReadReq_mshr_miss_rate::cpu.inst     0.000006                       # mshr miss rate for ReadReq accesses
system.cpu.icache.ReadReq_mshr_miss_rate::total     0.000006                       # mshr miss rate for ReadReq accesses
system.cpu.icache.demand_mshr_miss_rate::cpu.inst     0.000006                       # mshr miss rate for demand accesses
system.cpu.icache.demand_mshr_miss_rate::total     0.000006                       # mshr miss rate for demand accesses
system.cpu.icache.overall_mshr_miss_rate::cpu.inst     0.000006                       # mshr miss rate for overall accesses
system.cpu.icache.overall_mshr_miss_rate::total     0.000006                       # mshr miss rate for overall accesses
system.cpu.icache.ReadReq_avg_mshr_miss_latency::cpu.inst 205316.384181                       # average ReadReq mshr miss latency
system.cpu.icache.ReadReq_avg_mshr_miss_latency::total 205316.384181                       # average ReadReq mshr miss latency
system.cpu.icache.demand_avg_mshr_miss_latency::cpu.inst 205316.384181                       # average overall mshr miss latency
system.cpu.icache.demand_avg_mshr_miss_latency::total 205316.384181                       # average overall mshr miss latency
system.cpu.icache.overall_avg_mshr_miss_latency::cpu.inst 205316.384181                       # average overall mshr miss latency
system.cpu.icache.overall_avg_mshr_miss_latency::total 205316.384181                       # average overall mshr miss latency
system.cpu.icache.replacements                     46                       # number of replacements
system.cpu.itb_walker_cache.tags.pwrStateResidencyTicks::UNDEFINED  92111996000                       # Cumulative time (in ticks) in various power states
system.cpu.itb_walker_cache.tags.tagsinuse            0                       # Cycle average of tags in use
system.cpu.itb_walker_cache.tags.total_refs            0                       # Total number of references to valid blocks.
system.cpu.itb_walker_cache.tags.sampled_refs            0                       # Sample count of references to valid blocks.
system.cpu.itb_walker_cache.tags.avg_refs          nan                       # Average number of references to valid blocks.
system.cpu.itb_walker_cache.tags.warmup_cycle            0                       # Cycle when the warmup percentage was hit.
system.cpu.itb_walker_cache.tags.tag_accesses            0                       # Number of tag accesses
system.cpu.itb_walker_cache.tags.data_accesses            0                       # Number of data accesses
system.cpu.itb_walker_cache.pwrStateResidencyTicks::UNDEFINED  92111996000                       # Cumulative time (in ticks) in various power states
system.cpu.itb_walker_cache.blocked_cycles::no_mshrs            0                       # number of cycles access was blocked
system.cpu.itb_walker_cache.blocked_cycles::no_targets            0                       # number of cycles access was blocked
system.cpu.itb_walker_cache.blocked::no_mshrs            0                       # number of cycles access was blocked
system.cpu.itb_walker_cache.blocked::no_targets            0                       # number of cycles access was blocked
system.cpu.itb_walker_cache.avg_blocked_cycles::no_mshrs          nan                       # average number of cycles each access was blocked
system.cpu.itb_walker_cache.avg_blocked_cycles::no_targets          nan                       # average number of cycles each access was blocked
system.cpu.itb_walker_cache.replacements            0                       # number of replacements
system.l2.tags.pwrStateResidencyTicks::UNDEFINED  92111996000                       # Cumulative time (in ticks) in various power states
system.l2.tags.tagsinuse                  2019.436683                       # Cycle average of tags in use
system.l2.tags.total_refs                       96571                       # Total number of references to valid blocks.
system.l2.tags.sampled_refs                     24185                       # Sample count of references to valid blocks.
system.l2.tags.avg_refs                      3.993012                       # Average number of references to valid blocks.
system.l2.tags.warmup_cycle                    428500                       # Cycle when the warmup percentage was hit.
system.l2.tags.occ_blocks::writebacks        1.400474                       # Average occupied blocks per requestor
system.l2.tags.occ_blocks::cpu.inst         10.999038                       # Average occupied blocks per requestor
system.l2.tags.occ_blocks::cpu.data       2007.037171                       # Average occupied blocks per requestor
system.l2.tags.occ_percent::writebacks       0.000684                       # Average percentage of cache occupancy
system.l2.tags.occ_percent::cpu.inst         0.005371                       # Average percentage of cache occupancy
system.l2.tags.occ_percent::cpu.data         0.979999                       # Average percentage of cache occupancy
system.l2.tags.occ_percent::total            0.986053                       # Average percentage of cache occupancy
system.l2.tags.occ_task_id_blocks::1024          2048                       # Occupied blocks per task id
system.l2.tags.age_task_id_blocks_1024::0           33                       # Occupied blocks per task id
system.l2.tags.age_task_id_blocks_1024::1           41                       # Occupied blocks per task id
system.l2.tags.age_task_id_blocks_1024::2           33                       # Occupied blocks per task id
system.l2.tags.age_task_id_blocks_1024::3           59                       # Occupied blocks per task id
system.l2.tags.age_task_id_blocks_1024::4         1882                       # Occupied blocks per task id
system.l2.tags.occ_task_id_percent::1024            1                       # Percentage of cache occupancy per task id
system.l2.tags.tag_accesses                    796753                       # Number of tag accesses
system.l2.tags.data_accesses                   796753                       # Number of data accesses
system.l2.pwrStateResidencyTicks::UNDEFINED  92111996000                       # Cumulative time (in ticks) in various power states
system.l2.WritebackDirty_hits::writebacks        43419                       # number of WritebackDirty hits
system.l2.WritebackDirty_hits::total            43419                       # number of WritebackDirty hits
system.l2.WritebackClean_hits::writebacks           46                       # number of WritebackClean hits
system.l2.WritebackClean_hits::total               46                       # number of WritebackClean hits
system.l2.UpgradeReq_hits::cpu.data              5823                       # number of UpgradeReq hits
system.l2.UpgradeReq_hits::total                 5823                       # number of UpgradeReq hits
system.l2.ReadExReq_hits::cpu.data                258                       # number of ReadExReq hits
system.l2.ReadExReq_hits::total                   258                       # number of ReadExReq hits
system.l2.ReadSharedReq_hits::cpu.data          21365                       # number of ReadSharedReq hits
system.l2.ReadSharedReq_hits::total             21365                       # number of ReadSharedReq hits
system.l2.demand_hits::cpu.data                 21623                       # number of demand (read+write) hits
system.l2.demand_hits::total                    21623                       # number of demand (read+write) hits
system.l2.overall_hits::cpu.data                21623                       # number of overall hits
system.l2.overall_hits::total                   21623                       # number of overall hits
system.l2.ReadExReq_misses::cpu.data             6441                       # number of ReadExReq misses
system.l2.ReadExReq_misses::total                6441                       # number of ReadExReq misses
system.l2.ReadCleanReq_misses::cpu.inst           354                       # number of ReadCleanReq misses
system.l2.ReadCleanReq_misses::total              354                       # number of ReadCleanReq misses
system.l2.ReadSharedReq_misses::cpu.data        17366                       # number of ReadSharedReq misses
system.l2.ReadSharedReq_misses::total           17366                       # number of ReadSharedReq misses
system.l2.demand_misses::cpu.inst                 354                       # number of demand (read+write) misses
system.l2.demand_misses::cpu.data               23807                       # number of demand (read+write) misses
system.l2.demand_misses::total                  24161                       # number of demand (read+write) misses
system.l2.overall_misses::cpu.inst                354                       # number of overall misses
system.l2.overall_misses::cpu.data              23807                       # number of overall misses
system.l2.overall_misses::total                 24161                       # number of overall misses
system.l2.ReadExReq_miss_latency::cpu.data   1179200500                       # number of ReadExReq miss cycles
system.l2.ReadExReq_miss_latency::total    1179200500                       # number of ReadExReq miss cycles
system.l2.ReadCleanReq_miss_latency::cpu.inst     72149000                       # number of ReadCleanReq miss cycles
system.l2.ReadCleanReq_miss_latency::total     72149000                       # number of ReadCleanReq miss cycles
system.l2.ReadSharedReq_miss_latency::cpu.data   3883861500                       # number of ReadSharedReq miss cycles
system.l2.ReadSharedReq_miss_latency::total   3883861500                       # number of ReadSharedReq miss cycles
system.l2.demand_miss_latency::cpu.inst      72149000                       # number of demand (read+write) miss cycles
system.l2.demand_miss_latency::cpu.data    5063062000                       # number of demand (read+write) miss cycles
system.l2.demand_miss_latency::total       5135211000                       # number of demand (read+write) miss cycles
system.l2.overall_miss_latency::cpu.inst     72149000                       # number of overall miss cycles
system.l2.overall_miss_latency::cpu.data   5063062000                       # number of overall miss cycles
system.l2.overall_miss_latency::total      5135211000                       # number of overall miss cycles
system.l2.WritebackDirty_accesses::writebacks        43419                       # number of WritebackDirty accesses(hits+misses)
system.l2.WritebackDirty_accesses::total        43419                       # number of WritebackDirty accesses(hits+misses)
system.l2.WritebackClean_accesses::writebacks           46                       # number of WritebackClean accesses(hits+misses)
system.l2.WritebackClean_accesses::total           46                       # number of WritebackClean accesses(hits+misses)
system.l2.UpgradeReq_accesses::cpu.data          5823                       # number of UpgradeReq accesses(hits+misses)
system.l2.UpgradeReq_accesses::total             5823                       # number of UpgradeReq accesses(hits+misses)
system.l2.ReadExReq_accesses::cpu.data           6699                       # number of ReadExReq accesses(hits+misses)
system.l2.ReadExReq_accesses::total              6699                       # number of ReadExReq accesses(hits+misses)
system.l2.ReadCleanReq_accesses::cpu.inst          354                       # number of ReadCleanReq accesses(hits+misses)
system.l2.ReadCleanReq_accesses::total            354                       # number of ReadCleanReq accesses(hits+misses)
system.l2.ReadSharedReq_accesses::cpu.data        38731                       # number of ReadSharedReq accesses(hits+misses)
system.l2.ReadSharedReq_accesses::total         38731                       # number of ReadSharedReq accesses(hits+misses)
system.l2.demand_accesses::cpu.inst               354                       # number of demand (read+write) accesses
system.l2.demand_accesses::cpu.data             45430                       # number of demand (read+write) accesses
system.l2.demand_accesses::total                45784                       # number of demand (read+write) accesses
system.l2.overall_accesses::cpu.inst              354                       # number of overall (read+write) accesses
system.l2.overall_accesses::cpu.data            45430                       # number of overall (read+write) accesses
system.l2.overall_accesses::total               45784                       # number of overall (read+write) accesses
system.l2.ReadExReq_miss_rate::cpu.data      0.961487                       # miss rate for ReadExReq accesses
system.l2.ReadExReq_miss_rate::total         0.961487                       # miss rate for ReadExReq accesses
system.l2.ReadCleanReq_miss_rate::cpu.inst            1                       # miss rate for ReadCleanReq accesses
system.l2.ReadCleanReq_miss_rate::total             1                       # miss rate for ReadCleanReq accesses
system.l2.ReadSharedReq_miss_rate::cpu.data     0.448375                       # miss rate for ReadSharedReq accesses
system.l2.ReadSharedReq_miss_rate::total     0.448375                       # miss rate for ReadSharedReq accesses
system.l2.demand_miss_rate::cpu.inst                1                       # miss rate for demand accesses
system.l2.demand_miss_rate::cpu.data         0.524037                       # miss rate for demand accesses
system.l2.demand_miss_rate::total            0.527717                       # miss rate for demand accesses
system.l2.overall_miss_rate::cpu.inst               1                       # miss rate for overall accesses
system.l2.overall_miss_rate::cpu.data        0.524037                       # miss rate for overall accesses
system.l2.overall_miss_rate::total           0.527717                       # miss rate for overall accesses
system.l2.ReadExReq_avg_miss_latency::cpu.data 183077.239559                       # average ReadExReq miss latency
system.l2.ReadExReq_avg_miss_latency::total 183077.239559                       # average ReadExReq miss latency
system.l2.ReadCleanReq_avg_miss_latency::cpu.inst 203810.734463                       # average ReadCleanReq miss latency
system.l2.ReadCleanReq_avg_miss_latency::total 203810.734463                       # average ReadCleanReq miss latency
system.l2.ReadSharedReq_avg_miss_latency::cpu.data 223647.443280                       # average ReadSharedReq miss latency
system.l2.ReadSharedReq_avg_miss_latency::total 223647.443280                       # average ReadSharedReq miss latency
system.l2.demand_avg_miss_latency::cpu.inst 203810.734463                       # average overall miss latency
system.l2.demand_avg_miss_latency::cpu.data 212671.147142                       # average overall miss latency
system.l2.demand_avg_miss_latency::total 212541.326932                       # average overall miss latency
system.l2.overall_avg_miss_latency::cpu.inst 203810.734463                       # average overall miss latency
system.l2.overall_avg_miss_latency::cpu.data 212671.147142                       # average overall miss latency
system.l2.overall_avg_miss_latency::total 212541.326932                       # average overall miss latency
system.l2.blocked_cycles::no_mshrs                  0                       # number of cycles access was blocked
system.l2.blocked_cycles::no_targets                0                       # number of cycles access was blocked
system.l2.blocked::no_mshrs                         0                       # number of cycles access was blocked
system.l2.blocked::no_targets                       0                       # number of cycles access was blocked
system.l2.avg_blocked_cycles::no_mshrs            nan                       # average number of cycles each access was blocked
system.l2.avg_blocked_cycles::no_targets          nan                       # average number of cycles each access was blocked
system.l2.writebacks::writebacks                21571                       # number of writebacks
system.l2.writebacks::total                     21571                       # number of writebacks
system.l2.ReadExReq_mshr_misses::cpu.data         6441                       # number of ReadExReq MSHR misses
system.l2.ReadExReq_mshr_misses::total           6441                       # number of ReadExReq MSHR misses
system.l2.ReadCleanReq_mshr_misses::cpu.inst          354                       # number of ReadCleanReq MSHR misses
system.l2.ReadCleanReq_mshr_misses::total          354                       # number of ReadCleanReq MSHR misses
system.l2.ReadSharedReq_mshr_misses::cpu.data        17366                       # number of ReadSharedReq MSHR misses
system.l2.ReadSharedReq_mshr_misses::total        17366                       # number of ReadSharedReq MSHR misses
system.l2.demand_mshr_misses::cpu.inst            354                       # number of demand (read+write) MSHR misses
system.l2.demand_mshr_misses::cpu.data          23807                       # number of demand (read+write) MSHR misses
system.l2.demand_mshr_misses::total             24161                       # number of demand (read+write) MSHR misses
system.l2.overall_mshr_misses::cpu.inst           354                       # number of overall MSHR misses
system.l2.overall_mshr_misses::cpu.data         23807                       # number of overall MSHR misses
system.l2.overall_mshr_misses::total            24161                       # number of overall MSHR misses
system.l2.ReadExReq_mshr_miss_latency::cpu.data   1114790500                       # number of ReadExReq MSHR miss cycles
system.l2.ReadExReq_mshr_miss_latency::total   1114790500                       # number of ReadExReq MSHR miss cycles
system.l2.ReadCleanReq_mshr_miss_latency::cpu.inst     68609000                       # number of ReadCleanReq MSHR miss cycles
system.l2.ReadCleanReq_mshr_miss_latency::total     68609000                       # number of ReadCleanReq MSHR miss cycles
system.l2.ReadSharedReq_mshr_miss_latency::cpu.data   3710201500                       # number of ReadSharedReq MSHR miss cycles
system.l2.ReadSharedReq_mshr_miss_latency::total   3710201500                       # number of ReadSharedReq MSHR miss cycles
system.l2.demand_mshr_miss_latency::cpu.inst     68609000                       # number of demand (read+write) MSHR miss cycles
system.l2.demand_mshr_miss_latency::cpu.data   4824992000                       # number of demand (read+write) MSHR miss cycles
system.l2.demand_mshr_miss_latency::total   4893601000                       # number of demand (read+write) MSHR miss cycles
system.l2.overall_mshr_miss_latency::cpu.inst     68609000                       # number of overall MSHR miss cycles
system.l2.overall_mshr_miss_latency::cpu.data   4824992000                       # number of overall MSHR miss cycles
system.l2.overall_mshr_miss_latency::total   4893601000                       # number of overall MSHR miss cycles
system.l2.ReadExReq_mshr_miss_rate::cpu.data     0.961487                       # mshr miss rate for ReadExReq accesses
system.l2.ReadExReq_mshr_miss_rate::total     0.961487                       # mshr miss rate for ReadExReq accesses
system.l2.ReadCleanReq_mshr_miss_rate::cpu.inst            1                       # mshr miss rate for ReadCleanReq accesses
system.l2.ReadCleanReq_mshr_miss_rate::total            1                       # mshr miss rate for ReadCleanReq accesses
system.l2.ReadSharedReq_mshr_miss_rate::cpu.data     0.448375                       # mshr miss rate for ReadSharedReq accesses
system.l2.ReadSharedReq_mshr_miss_rate::total     0.448375                       # mshr miss rate for ReadSharedReq accesses
system.l2.demand_mshr_miss_rate::cpu.inst            1                       # mshr miss rate for demand accesses
system.l2.demand_mshr_miss_rate::cpu.data     0.524037                       # mshr miss rate for demand accesses
system.l2.demand_mshr_miss_rate::total       0.527717                       # mshr miss rate for demand accesses
system.l2.overall_mshr_miss_rate::cpu.inst            1                       # mshr miss rate for overall accesses
system.l2.overall_mshr_miss_rate::cpu.data     0.524037                       # mshr miss rate for overall accesses
system.l2.overall_mshr_miss_rate::total      0.527717                       # mshr miss rate for overall accesses
system.l2.ReadExReq_avg_mshr_miss_latency::cpu.data 173077.239559                       # average ReadExReq mshr miss latency
system.l2.ReadExReq_avg_mshr_miss_latency::total 173077.239559                       # average ReadExReq mshr miss latency
system.l2.ReadCleanReq_avg_mshr_miss_latency::cpu.inst 193810.734463                       # average ReadCleanReq mshr miss latency
system.l2.ReadCleanReq_avg_mshr_miss_latency::total 193810.734463                       # average ReadCleanReq mshr miss latency
system.l2.ReadSharedReq_avg_mshr_miss_latency::cpu.data 213647.443280                       # average ReadSharedReq mshr miss latency
system.l2.ReadSharedReq_avg_mshr_miss_latency::total 213647.443280                       # average ReadSharedReq mshr miss latency
system.l2.demand_avg_mshr_miss_latency::cpu.inst 193810.734463                       # average overall mshr miss latency
system.l2.demand_avg_mshr_miss_latency::cpu.data 202671.147142                       # average overall mshr miss latency
system.l2.demand_avg_mshr_miss_latency::total 202541.326932                       # average overall mshr miss latency
system.l2.overall_avg_mshr_miss_latency::cpu.inst 193810.734463                       # average overall mshr miss latency
system.l2.overall_avg_mshr_miss_latency::cpu.data 202671.147142                       # average overall mshr miss latency
system.l2.overall_avg_mshr_miss_latency::total 202541.326932                       # average overall mshr miss latency
system.l2.replacements                          22137                       # number of replacements
system.l3.tags.pwrStateResidencyTicks::UNDEFINED  92111996000                       # Cumulative time (in ticks) in various power states
system.l3.tags.tagsinuse                  2017.629273                       # Cycle average of tags in use
system.l3.tags.total_refs                       45758                       # Total number of references to valid blocks.
system.l3.tags.sampled_refs                     32439                       # Sample count of references to valid blocks.
system.l3.tags.avg_refs                      1.410586                       # Average number of references to valid blocks.
system.l3.tags.warmup_cycle                    418000                       # Cycle when the warmup percentage was hit.
system.l3.tags.occ_blocks::writebacks      416.235298                       # Average occupied blocks per requestor
system.l3.tags.occ_blocks::cpu.inst         53.801772                       # Average occupied blocks per requestor
system.l3.tags.occ_blocks::cpu.data       1547.592203                       # Average occupied blocks per requestor
system.l3.tags.occ_percent::writebacks       0.203240                       # Average percentage of cache occupancy
system.l3.tags.occ_percent::cpu.inst         0.026270                       # Average percentage of cache occupancy
system.l3.tags.occ_percent::cpu.data         0.755660                       # Average percentage of cache occupancy
system.l3.tags.occ_percent::total            0.985171                       # Average percentage of cache occupancy
system.l3.tags.occ_task_id_blocks::1024          2048                       # Occupied blocks per task id
system.l3.tags.age_task_id_blocks_1024::0           28                       # Occupied blocks per task id
system.l3.tags.age_task_id_blocks_1024::1           42                       # Occupied blocks per task id
system.l3.tags.age_task_id_blocks_1024::2           23                       # Occupied blocks per task id
system.l3.tags.age_task_id_blocks_1024::3           44                       # Occupied blocks per task id
system.l3.tags.age_task_id_blocks_1024::4         1911                       # Occupied blocks per task id
system.l3.tags.occ_task_id_percent::1024            1                       # Percentage of cache occupancy per task id
system.l3.tags.tag_accesses                    216455                       # Number of tag accesses
system.l3.tags.data_accesses                   216455                       # Number of data accesses
system.l3.pwrStateResidencyTicks::UNDEFINED  92111996000                       # Cumulative time (in ticks) in various power states
system.l3.WritebackDirty_hits::writebacks        21571                       # number of WritebackDirty hits
system.l3.WritebackDirty_hits::total            21571                       # number of WritebackDirty hits
system.l3.ReadExReq_hits::cpu.data                 29                       # number of ReadExReq hits
system.l3.ReadExReq_hits::total                    29                       # number of ReadExReq hits
system.l3.ReadSharedReq_hits::cpu.data           6574                       # number of ReadSharedReq hits
system.l3.ReadSharedReq_hits::total              6574                       # number of ReadSharedReq hits
system.l3.demand_hits::cpu.data                  6603                       # number of demand (read+write) hits
system.l3.demand_hits::total                     6603                       # number of demand (read+write) hits
system.l3.overall_hits::cpu.data                 6603                       # number of overall hits
system.l3.overall_hits::total                    6603                       # number of overall hits
system.l3.ReadExReq_misses::cpu.data             6412                       # number of ReadExReq misses
system.l3.ReadExReq_misses::total                6412                       # number of ReadExReq misses
system.l3.ReadSharedReq_misses::cpu.inst          354                       # number of ReadSharedReq misses
system.l3.ReadSharedReq_misses::cpu.data        10792                       # number of ReadSharedReq misses
system.l3.ReadSharedReq_misses::total           11146                       # number of ReadSharedReq misses
system.l3.demand_misses::cpu.inst                 354                       # number of demand (read+write) misses
system.l3.demand_misses::cpu.data               17204                       # number of demand (read+write) misses
system.l3.demand_misses::total                  17558                       # number of demand (read+write) misses
system.l3.overall_misses::cpu.inst                354                       # number of overall misses
system.l3.overall_misses::cpu.data              17204                       # number of overall misses
system.l3.overall_misses::total                 17558                       # number of overall misses
system.l3.ReadExReq_miss_latency::cpu.data   1043635000                       # number of ReadExReq miss cycles
system.l3.ReadExReq_miss_latency::total    1043635000                       # number of ReadExReq miss cycles
system.l3.ReadSharedReq_miss_latency::cpu.inst     64715000                       # number of ReadSharedReq miss cycles
system.l3.ReadSharedReq_miss_latency::cpu.data   3439677000                       # number of ReadSharedReq miss cycles
system.l3.ReadSharedReq_miss_latency::total   3504392000                       # number of ReadSharedReq miss cycles
system.l3.demand_miss_latency::cpu.inst      64715000                       # number of demand (read+write) miss cycles
system.l3.demand_miss_latency::cpu.data    4483312000                       # number of demand (read+write) miss cycles
system.l3.demand_miss_latency::total       4548027000                       # number of demand (read+write) miss cycles
system.l3.overall_miss_latency::cpu.inst     64715000                       # number of overall miss cycles
system.l3.overall_miss_latency::cpu.data   4483312000                       # number of overall miss cycles
system.l3.overall_miss_latency::total      4548027000                       # number of overall miss cycles
system.l3.WritebackDirty_accesses::writebacks        21571                       # number of WritebackDirty accesses(hits+misses)
system.l3.WritebackDirty_accesses::total        21571                       # number of WritebackDirty accesses(hits+misses)
system.l3.ReadExReq_accesses::cpu.data           6441                       # number of ReadExReq accesses(hits+misses)
system.l3.ReadExReq_accesses::total              6441                       # number of ReadExReq accesses(hits+misses)
system.l3.ReadSharedReq_accesses::cpu.inst          354                       # number of ReadSharedReq accesses(hits+misses)
system.l3.ReadSharedReq_accesses::cpu.data        17366                       # number of ReadSharedReq accesses(hits+misses)
system.l3.ReadSharedReq_accesses::total         17720                       # number of ReadSharedReq accesses(hits+misses)
system.l3.demand_accesses::cpu.inst               354                       # number of demand (read+write) accesses
system.l3.demand_accesses::cpu.data             23807                       # number of demand (read+write) accesses
system.l3.demand_accesses::total                24161                       # number of demand (read+write) accesses
system.l3.overall_accesses::cpu.inst              354                       # number of overall (read+write) accesses
system.l3.overall_accesses::cpu.data            23807                       # number of overall (read+write) accesses
system.l3.overall_accesses::total               24161                       # number of overall (read+write) accesses
system.l3.ReadExReq_miss_rate::cpu.data      0.995498                       # miss rate for ReadExReq accesses
system.l3.ReadExReq_miss_rate::total         0.995498                       # miss rate for ReadExReq accesses
system.l3.ReadSharedReq_miss_rate::cpu.inst            1                       # miss rate for ReadSharedReq accesses
system.l3.ReadSharedReq_miss_rate::cpu.data     0.621444                       # miss rate for ReadSharedReq accesses
system.l3.ReadSharedReq_miss_rate::total     0.629007                       # miss rate for ReadSharedReq accesses
system.l3.demand_miss_rate::cpu.inst                1                       # miss rate for demand accesses
system.l3.demand_miss_rate::cpu.data         0.722645                       # miss rate for demand accesses
system.l3.demand_miss_rate::total            0.726708                       # miss rate for demand accesses
system.l3.overall_miss_rate::cpu.inst               1                       # miss rate for overall accesses
system.l3.overall_miss_rate::cpu.data        0.722645                       # miss rate for overall accesses
system.l3.overall_miss_rate::total           0.726708                       # miss rate for overall accesses
system.l3.ReadExReq_avg_miss_latency::cpu.data 162762.788522                       # average ReadExReq miss latency
system.l3.ReadExReq_avg_miss_latency::total 162762.788522                       # average ReadExReq miss latency
system.l3.ReadSharedReq_avg_miss_latency::cpu.inst 182810.734463                       # average ReadSharedReq miss latency
system.l3.ReadSharedReq_avg_miss_latency::cpu.data 318724.703484                       # average ReadSharedReq miss latency
system.l3.ReadSharedReq_avg_miss_latency::total 314408.038758                       # average ReadSharedReq miss latency
system.l3.demand_avg_miss_latency::cpu.inst 182810.734463                       # average overall miss latency
system.l3.demand_avg_miss_latency::cpu.data 260597.070449                       # average overall miss latency
system.l3.demand_avg_miss_latency::total 259028.761818                       # average overall miss latency
system.l3.overall_avg_miss_latency::cpu.inst 182810.734463                       # average overall miss latency
system.l3.overall_avg_miss_latency::cpu.data 260597.070449                       # average overall miss latency
system.l3.overall_avg_miss_latency::total 259028.761818                       # average overall miss latency
system.l3.blocked_cycles::no_mshrs                  0                       # number of cycles access was blocked
system.l3.blocked_cycles::no_targets                0                       # number of cycles access was blocked
system.l3.blocked::no_mshrs                         0                       # number of cycles access was blocked
system.l3.blocked::no_targets                       0                       # number of cycles access was blocked
system.l3.avg_blocked_cycles::no_mshrs            nan                       # average number of cycles each access was blocked
system.l3.avg_blocked_cycles::no_targets          nan                       # average number of cycles each access was blocked
system.l3.writebacks::writebacks                13129                       # number of writebacks
system.l3.writebacks::total                     13129                       # number of writebacks
system.l3.CleanEvict_mshr_misses::writebacks          246                       # number of CleanEvict MSHR misses
system.l3.CleanEvict_mshr_misses::total           246                       # number of CleanEvict MSHR misses
system.l3.ReadExReq_mshr_misses::cpu.data         6412                       # number of ReadExReq MSHR misses
system.l3.ReadExReq_mshr_misses::total           6412                       # number of ReadExReq MSHR misses
system.l3.ReadSharedReq_mshr_misses::cpu.inst          354                       # number of ReadSharedReq MSHR misses
system.l3.ReadSharedReq_mshr_misses::cpu.data        10792                       # number of ReadSharedReq MSHR misses
system.l3.ReadSharedReq_mshr_misses::total        11146                       # number of ReadSharedReq MSHR misses
system.l3.demand_mshr_misses::cpu.inst            354                       # number of demand (read+write) MSHR misses
system.l3.demand_mshr_misses::cpu.data          17204                       # number of demand (read+write) MSHR misses
system.l3.demand_mshr_misses::total             17558                       # number of demand (read+write) MSHR misses
system.l3.overall_mshr_misses::cpu.inst           354                       # number of overall MSHR misses
system.l3.overall_mshr_misses::cpu.data         17204                       # number of overall MSHR misses
system.l3.overall_mshr_misses::total            17558                       # number of overall MSHR misses
system.l3.ReadExReq_mshr_miss_latency::cpu.data    979515000                       # number of ReadExReq MSHR miss cycles
system.l3.ReadExReq_mshr_miss_latency::total    979515000                       # number of ReadExReq MSHR miss cycles
system.l3.ReadSharedReq_mshr_miss_latency::cpu.inst     61175000                       # number of ReadSharedReq MSHR miss cycles
system.l3.ReadSharedReq_mshr_miss_latency::cpu.data   3331757000                       # number of ReadSharedReq MSHR miss cycles
system.l3.ReadSharedReq_mshr_miss_latency::total   3392932000                       # number of ReadSharedReq MSHR miss cycles
system.l3.demand_mshr_miss_latency::cpu.inst     61175000                       # number of demand (read+write) MSHR miss cycles
system.l3.demand_mshr_miss_latency::cpu.data   4311272000                       # number of demand (read+write) MSHR miss cycles
system.l3.demand_mshr_miss_latency::total   4372447000                       # number of demand (read+write) MSHR miss cycles
system.l3.overall_mshr_miss_latency::cpu.inst     61175000                       # number of overall MSHR miss cycles
system.l3.overall_mshr_miss_latency::cpu.data   4311272000                       # number of overall MSHR miss cycles
system.l3.overall_mshr_miss_latency::total   4372447000                       # number of overall MSHR miss cycles
system.l3.CleanEvict_mshr_miss_rate::writebacks          inf                       # mshr miss rate for CleanEvict accesses
system.l3.CleanEvict_mshr_miss_rate::total          inf                       # mshr miss rate for CleanEvict accesses
system.l3.ReadExReq_mshr_miss_rate::cpu.data     0.995498                       # mshr miss rate for ReadExReq accesses
system.l3.ReadExReq_mshr_miss_rate::total     0.995498                       # mshr miss rate for ReadExReq accesses
system.l3.ReadSharedReq_mshr_miss_rate::cpu.inst            1                       # mshr miss rate for ReadSharedReq accesses
system.l3.ReadSharedReq_mshr_miss_rate::cpu.data     0.621444                       # mshr miss rate for ReadSharedReq accesses
system.l3.ReadSharedReq_mshr_miss_rate::total     0.629007                       # mshr miss rate for ReadSharedReq accesses
system.l3.demand_mshr_miss_rate::cpu.inst            1                       # mshr miss rate for demand accesses
system.l3.demand_mshr_miss_rate::cpu.data     0.722645                       # mshr miss rate for demand accesses
system.l3.demand_mshr_miss_rate::total       0.726708                       # mshr miss rate for demand accesses
system.l3.overall_mshr_miss_rate::cpu.inst            1                       # mshr miss rate for overall accesses
system.l3.overall_mshr_miss_rate::cpu.data     0.722645                       # mshr miss rate for overall accesses
system.l3.overall_mshr_miss_rate::total      0.726708                       # mshr miss rate for overall accesses
system.l3.ReadExReq_avg_mshr_miss_latency::cpu.data 152762.788522                       # average ReadExReq mshr miss latency
system.l3.ReadExReq_avg_mshr_miss_latency::total 152762.788522                       # average ReadExReq mshr miss latency
system.l3.ReadSharedReq_avg_mshr_miss_latency::cpu.inst 172810.734463                       # average ReadSharedReq mshr miss latency
system.l3.ReadSharedReq_avg_mshr_miss_latency::cpu.data 308724.703484                       # average ReadSharedReq mshr miss latency
system.l3.ReadSharedReq_avg_mshr_miss_latency::total 304408.038758                       # average ReadSharedReq mshr miss latency
system.l3.demand_avg_mshr_miss_latency::cpu.inst 172810.734463                       # average overall mshr miss latency
system.l3.demand_avg_mshr_miss_latency::cpu.data 250597.070449                       # average overall mshr miss latency
system.l3.demand_avg_mshr_miss_latency::total 249028.761818                       # average overall mshr miss latency
system.l3.overall_avg_mshr_miss_latency::cpu.inst 172810.734463                       # average overall mshr miss latency
system.l3.overall_avg_mshr_miss_latency::cpu.data 250597.070449                       # average overall mshr miss latency
system.l3.overall_avg_mshr_miss_latency::total 249028.761818                       # average overall mshr miss latency
system.l3.replacements                          30391                       # number of replacements
system.membus.snoop_filter.tot_requests         33562                       # Total number of requests made to the snoop filter.
system.membus.snoop_filter.hit_single_requests        16004                       # Number of requests hitting in the snoop filter with a single holder of the requested data.
system.membus.snoop_filter.hit_multi_requests            0                       # Number of requests hitting in the snoop filter with multiple (>1) holders of the requested data.
system.membus.snoop_filter.tot_snoops               0                       # Total number of snoops made to the snoop filter.
system.membus.snoop_filter.hit_single_snoops            0                       # Number of snoops hitting in the snoop filter with a single holder of the requested data.
system.membus.snoop_filter.hit_multi_snoops            0                       # Number of snoops hitting in the snoop filter with multiple (>1) holders of the requested data.
system.membus.pwrStateResidencyTicks::UNDEFINED  92111996000                       # Cumulative time (in ticks) in various power states
system.membus.trans_dist::ReadResp              11146                       # Transaction distribution
system.membus.trans_dist::WritebackDirty        13129                       # Transaction distribution
system.membus.trans_dist::CleanEvict              256                       # Transaction distribution
system.membus.trans_dist::ReadExReq              6412                       # Transaction distribution
system.membus.trans_dist::ReadExResp             6412                       # Transaction distribution
system.membus.trans_dist::ReadSharedReq         11146                       # Transaction distribution
system.membus.pkt_count_system.l3.mem_side::system.mem_ctrls.port        48501                       # Packet count per connected master and slave (bytes)
system.membus.pkt_count_system.l3.mem_side::total        48501                       # Packet count per connected master and slave (bytes)
system.membus.pkt_count::total                  48501                       # Packet count per connected master and slave (bytes)
system.membus.pkt_size_system.l3.mem_side::system.mem_ctrls.port      1963968                       # Cumulative packet size per connected master and slave (bytes)
system.membus.pkt_size_system.l3.mem_side::total      1963968                       # Cumulative packet size per connected master and slave (bytes)
system.membus.pkt_size::total                 1963968                       # Cumulative packet size per connected master and slave (bytes)
system.membus.snoops                                0                       # Total snoops (count)
system.membus.snoopTraffic                          0                       # Total snoop traffic (bytes)
system.membus.snoop_fanout::samples             17558                       # Request fanout histogram
system.membus.snoop_fanout::mean                    0                       # Request fanout histogram
system.membus.snoop_fanout::stdev                   0                       # Request fanout histogram
system.membus.snoop_fanout::underflows              0      0.00%      0.00% # Request fanout histogram
system.membus.snoop_fanout::0                   17558    100.00%    100.00% # Request fanout histogram
system.membus.snoop_fanout::1                       0      0.00%    100.00% # Request fanout histogram
system.membus.snoop_fanout::overflows               0      0.00%    100.00% # Request fanout histogram
system.membus.snoop_fanout::min_value               0                       # Request fanout histogram
system.membus.snoop_fanout::max_value               0                       # Request fanout histogram
system.membus.snoop_fanout::total               17558                       # Request fanout histogram
system.membus.reqLayer2.occupancy            86119000                       # Layer occupancy (ticks)
system.membus.reqLayer2.utilization               0.1                       # Layer utilization (%)
system.membus.respLayer1.occupancy           87796500                       # Layer occupancy (ticks)
system.membus.respLayer1.utilization              0.1                       # Layer utilization (%)
system.tol2bus.snoop_filter.tot_requests        96571                       # Total number of requests made to the snoop filter.
system.tol2bus.snoop_filter.hit_single_requests        50787                       # Number of requests hitting in the snoop filter with a single holder of the requested data.
system.tol2bus.snoop_filter.hit_multi_requests            0                       # Number of requests hitting in the snoop filter with multiple (>1) holders of the requested data.
system.tol2bus.snoop_filter.tot_snoops          15435                       # Total number of snoops made to the snoop filter.
system.tol2bus.snoop_filter.hit_single_snoops        15435                       # Number of snoops hitting in the snoop filter with a single holder of the requested data.
system.tol2bus.snoop_filter.hit_multi_snoops            0                       # Number of snoops hitting in the snoop filter with multiple (>1) holders of the requested data.
system.tol2bus.pwrStateResidencyTicks::UNDEFINED  92111996000                       # Cumulative time (in ticks) in various power states
system.tol2bus.trans_dist::ReadResp             39085                       # Transaction distribution
system.tol2bus.trans_dist::WritebackDirty        64990                       # Transaction distribution
system.tol2bus.trans_dist::WritebackClean           46                       # Transaction distribution
system.tol2bus.trans_dist::CleanEvict           19317                       # Transaction distribution
system.tol2bus.trans_dist::UpgradeReq            5823                       # Transaction distribution
system.tol2bus.trans_dist::UpgradeResp           5823                       # Transaction distribution
system.tol2bus.trans_dist::ReadExReq             6699                       # Transaction distribution
system.tol2bus.trans_dist::ReadExResp            6699                       # Transaction distribution
system.tol2bus.trans_dist::ReadCleanReq           354                       # Transaction distribution
system.tol2bus.trans_dist::ReadSharedReq        38731                       # Transaction distribution
system.tol2bus.pkt_count_system.cpu.icache.mem_side::system.l2.cpu_side          754                       # Packet count per connected master and slave (bytes)
system.tol2bus.pkt_count_system.cpu.dcache.mem_side::system.l2.cpu_side       147424                       # Packet count per connected master and slave (bytes)
system.tol2bus.pkt_count::total                148178                       # Packet count per connected master and slave (bytes)
system.tol2bus.pkt_size_system.cpu.icache.mem_side::system.l2.cpu_side        25600                       # Cumulative packet size per connected master and slave (bytes)
system.tol2bus.pkt_size_system.cpu.dcache.mem_side::system.l2.cpu_side      5686336                       # Cumulative packet size per connected master and slave (bytes)
system.tol2bus.pkt_size::total                5711936                       # Cumulative packet size per connected master and slave (bytes)
system.tol2bus.snoops                           39389                       # Total snoops (count)
system.tol2bus.snoopTraffic                   1380544                       # Total snoop traffic (bytes)
system.tol2bus.snoop_fanout::samples            90996                       # Request fanout histogram
system.tol2bus.snoop_fanout::mean            0.169623                       # Request fanout histogram
system.tol2bus.snoop_fanout::stdev           0.375303                       # Request fanout histogram
system.tol2bus.snoop_fanout::underflows             0      0.00%      0.00% # Request fanout histogram
system.tol2bus.snoop_fanout::0                  75561     83.04%     83.04% # Request fanout histogram
system.tol2bus.snoop_fanout::1                  15435     16.96%    100.00% # Request fanout histogram
system.tol2bus.snoop_fanout::2                      0      0.00%    100.00% # Request fanout histogram
system.tol2bus.snoop_fanout::3                      0      0.00%    100.00% # Request fanout histogram
system.tol2bus.snoop_fanout::4                      0      0.00%    100.00% # Request fanout histogram
system.tol2bus.snoop_fanout::overflows              0      0.00%    100.00% # Request fanout histogram
system.tol2bus.snoop_fanout::min_value              0                       # Request fanout histogram
system.tol2bus.snoop_fanout::max_value              1                       # Request fanout histogram
system.tol2bus.snoop_fanout::total              90996                       # Request fanout histogram
system.tol2bus.reqLayer0.occupancy           91750500                       # Layer occupancy (ticks)
system.tol2bus.reqLayer0.utilization              0.1                       # Layer utilization (%)
system.tol2bus.respLayer0.occupancy            531000                       # Layer occupancy (ticks)
system.tol2bus.respLayer0.utilization             0.0                       # Layer utilization (%)
system.tol2bus.respLayer1.occupancy          71056500                       # Layer occupancy (ticks)
system.tol2bus.respLayer1.utilization             0.1                       # Layer utilization (%)
system.tol3bus.snoop_filter.tot_requests        46011                       # Total number of requests made to the snoop filter.
system.tol3bus.snoop_filter.hit_single_requests        21843                       # Number of requests hitting in the snoop filter with a single holder of the requested data.
system.tol3bus.snoop_filter.hit_multi_requests            0                       # Number of requests hitting in the snoop filter with multiple (>1) holders of the requested data.
system.tol3bus.snoop_filter.tot_snoops          17252                       # Total number of snoops made to the snoop filter.
system.tol3bus.snoop_filter.hit_single_snoops        17252                       # Number of snoops hitting in the snoop filter with a single holder of the requested data.
system.tol3bus.snoop_filter.hit_multi_snoops            0                       # Number of snoops hitting in the snoop filter with multiple (>1) holders of the requested data.
system.tol3bus.pwrStateResidencyTicks::UNDEFINED  92111996000                       # Cumulative time (in ticks) in various power states
system.tol3bus.trans_dist::ReadResp             17720                       # Transaction distribution
system.tol3bus.trans_dist::WritebackDirty        34700                       # Transaction distribution
system.tol3bus.trans_dist::CleanEvict           17534                       # Transaction distribution
system.tol3bus.trans_dist::ReadExReq             6441                       # Transaction distribution
system.tol3bus.trans_dist::ReadExResp            6441                       # Transaction distribution
system.tol3bus.trans_dist::ReadSharedReq        17720                       # Transaction distribution
system.tol3bus.pkt_count_system.l2.mem_side::system.l3.cpu_side        70165                       # Packet count per connected master and slave (bytes)
system.tol3bus.pkt_size_system.l2.mem_side::system.l3.cpu_side      2926848                       # Cumulative packet size per connected master and slave (bytes)
system.tol3bus.snoops                           30391                       # Total snoops (count)
system.tol3bus.snoopTraffic                    840256                       # Total snoop traffic (bytes)
system.tol3bus.snoop_fanout::samples            54559                       # Request fanout histogram
system.tol3bus.snoop_fanout::mean            0.316208                       # Request fanout histogram
system.tol3bus.snoop_fanout::stdev           0.464999                       # Request fanout histogram
system.tol3bus.snoop_fanout::underflows             0      0.00%      0.00% # Request fanout histogram
system.tol3bus.snoop_fanout::0                  37307     68.38%     68.38% # Request fanout histogram
system.tol3bus.snoop_fanout::1                  17252     31.62%    100.00% # Request fanout histogram
system.tol3bus.snoop_fanout::overflows              0      0.00%    100.00% # Request fanout histogram
system.tol3bus.snoop_fanout::min_value              0                       # Request fanout histogram
system.tol3bus.snoop_fanout::max_value              1                       # Request fanout histogram
system.tol3bus.snoop_fanout::total              54559                       # Request fanout histogram
system.tol3bus.reqLayer0.occupancy           44579993                       # Layer occupancy (ticks)
system.tol3bus.reqLayer0.utilization              0.0                       # Layer utilization (%)
system.tol3bus.respLayer0.occupancy          36241507                       # Layer occupancy (ticks)
system.tol3bus.respLayer0.utilization             0.0                       # Layer utilization (%)

---------- End Simulation Statistics   ----------
