
---------- Begin Simulation Statistics ----------
sim_seconds                                  0.093425                       # Number of seconds simulated
sim_ticks                                 93425485000                       # Number of ticks simulated
final_tick                                93425485000                       # Number of ticks from beginning of simulation (restored from checkpoints and never reset)
sim_freq                                 1000000000000                       # Frequency of simulated ticks
host_inst_rate                                1059740                       # Simulator instruction rate (inst/s)
host_op_rate                                  1744883                       # Simulator op (including micro ops) rate (op/s)
host_tick_rate                             2220393348                       # Simulator tick rate (ticks/s)
host_mem_usage                                 660144                       # Number of bytes of host memory used
host_seconds                                    42.08                       # Real time elapsed on the host
sim_insts                                    44589711                       # Number of instructions simulated
sim_ops                                      73417858                       # Number of ops (including micro ops) simulated
system.voltage_domain.voltage                       1                       # Voltage in Volts
system.clk_domain.clock                          1000                       # Clock period in ticks
system.mem_ctrls.pwrStateResidencyTicks::UNDEFINED  93425485000                       # Cumulative time (in ticks) in various power states
system.mem_ctrls.bytes_read::cpu.inst           22656                       # Number of bytes read from this memory
system.mem_ctrls.bytes_read::cpu.data         1282240                       # Number of bytes read from this memory
system.mem_ctrls.bytes_read::total            1304896                       # Number of bytes read from this memory
system.mem_ctrls.bytes_inst_read::cpu.inst        22656                       # Number of instructions bytes read from this memory
system.mem_ctrls.bytes_inst_read::total         22656                       # Number of instructions bytes read from this memory
system.mem_ctrls.bytes_written::writebacks      1027200                       # Number of bytes written to this memory
system.mem_ctrls.bytes_written::total         1027200                       # Number of bytes written to this memory
system.mem_ctrls.num_reads::cpu.inst              354                       # Number of read requests responded to by this memory
system.mem_ctrls.num_reads::cpu.data            20035                       # Number of read requests responded to by this memory
system.mem_ctrls.num_reads::total               20389                       # Number of read requests responded to by this memory
system.mem_ctrls.num_writes::writebacks         16050                       # Number of write requests responded to by this memory
system.mem_ctrls.num_writes::total              16050                       # Number of write requests responded to by this memory
system.mem_ctrls.bw_read::cpu.inst             242503                       # Total read bandwidth from this memory (bytes/s)
system.mem_ctrls.bw_read::cpu.data           13724735                       # Total read bandwidth from this memory (bytes/s)
system.mem_ctrls.bw_read::total              13967238                       # Total read bandwidth from this memory (bytes/s)
system.mem_ctrls.bw_inst_read::cpu.inst        242503                       # Instruction read bandwidth from this memory (bytes/s)
system.mem_ctrls.bw_inst_read::total           242503                       # Instruction read bandwidth from this memory (bytes/s)
system.mem_ctrls.bw_write::writebacks        10994859                       # Write bandwidth from this memory (bytes/s)
system.mem_ctrls.bw_write::total             10994859                       # Write bandwidth from this memory (bytes/s)
system.mem_ctrls.bw_total::writebacks        10994859                       # Total bandwidth to/from this memory (bytes/s)
system.mem_ctrls.bw_total::cpu.inst            242503                       # Total bandwidth to/from this memory (bytes/s)
system.mem_ctrls.bw_total::cpu.data          13724735                       # Total bandwidth to/from this memory (bytes/s)
system.mem_ctrls.bw_total::total             24962097                       # Total bandwidth to/from this memory (bytes/s)
system.pwrStateResidencyTicks::UNDEFINED  93425485000                       # Cumulative time (in ticks) in various power states
system.cpu_voltage_domain.voltage                   1                       # Voltage in Volts
system.cpu_clk_domain.clock                       500                       # Clock period in ticks
system.cpu.dtb.walker.pwrStateResidencyTicks::UNDEFINED  93425485000                       # Cumulative time (in ticks) in various power states
system.cpu.dtb.rdAccesses                    20877750                       # TLB accesses on read requests
system.cpu.dtb.wrAccesses                     5816541                       # TLB accesses on write requests
system.cpu.dtb.rdMisses                           166                       # TLB misses on read requests
system.cpu.dtb.wrMisses                           106                       # TLB misses on write requests
system.cpu.apic_clk_domain.clock                 8000                       # Clock period in ticks
system.cpu.interrupts.pwrStateResidencyTicks::UNDEFINED  93425485000                       # Cumulative time (in ticks) in various power states
system.cpu.itb.walker.pwrStateResidencyTicks::UNDEFINED  93425485000                       # Cumulative time (in ticks) in various power states
system.cpu.itb.rdAccesses                           0                       # TLB accesses on read requests
system.cpu.itb.wrAccesses                    59916902                       # TLB accesses on write requests
system.cpu.itb.rdMisses                             0                       # TLB misses on read requests
system.cpu.itb.wrMisses                            36                       # TLB misses on write requests
system.cpu.workload.numSyscalls                     9                       # Number of system calls
system.cpu.pwrStateResidencyTicks::ON     93425485000                       # Cumulative time (in ticks) in various power states
system.cpu.numCycles                        186850970                       # number of cpu cycles simulated
system.cpu.numWorkItemsStarted                      0                       # number of work items this cpu started
system.cpu.numWorkItemsCompleted                    0                       # number of work items this cpu completed
system.cpu.committedInsts                    44589711                       # Number of instructions committed
system.cpu.committedOps                      73417858                       # Number of ops (including micro ops) committed
system.cpu.num_int_alu_accesses              72895934                       # Number of integer alu accesses
system.cpu.num_fp_alu_accesses                   1967                       # Number of float alu accesses
system.cpu.num_vec_alu_accesses                     0                       # Number of vector alu accesses
system.cpu.num_func_calls                      944900                       # number of times a function call or return occured
system.cpu.num_conditional_control_insts      4232452                       # number of instructions that are conditional controls
system.cpu.num_int_insts                     72895934                       # number of integer instructions
system.cpu.num_fp_insts                          1967                       # number of float instructions
system.cpu.num_vec_insts                            0                       # number of vector instructions
system.cpu.num_int_register_reads           163691607                       # number of times the integer registers were read
system.cpu.num_int_register_writes           63686401                       # number of times the integer registers were written
system.cpu.num_fp_register_reads                 3779                       # number of times the floating registers were read
system.cpu.num_fp_register_writes                1492                       # number of times the floating registers were written
system.cpu.num_vec_register_reads                   0                       # number of times the vector registers were read
system.cpu.num_vec_register_writes                  0                       # number of times the vector registers were written
system.cpu.num_cc_register_reads             27636615                       # number of times the CC registers were read
system.cpu.num_cc_register_writes            24933069                       # number of times the CC registers were written
system.cpu.num_mem_refs                      26694285                       # number of memory refs
system.cpu.num_load_insts                    20877745                       # Number of load instructions
system.cpu.num_store_insts                    5816540                       # Number of store instructions
system.cpu.num_idle_cycles                          0                       # Number of idle cycles
system.cpu.num_busy_cycles                  186850970                       # Number of busy cycles
system.cpu.not_idle_fraction                        1                       # Percentage of non-idle cycles
system.cpu.idle_fraction                            0                       # Percentage of idle cycles
system.cpu.Branches                           5574736                       # Number of branches fetched
system.cpu.op_class::No_OpClass                175846      0.24%      0.24% # Class of executed instruction
system.cpu.op_class::IntAlu                  45543769     62.03%     62.27% # Class of executed instruction
system.cpu.op_class::IntMult                        4      0.00%     62.27% # Class of executed instruction
system.cpu.op_class::IntDiv                   1002994      1.37%     63.64% # Class of executed instruction
system.cpu.op_class::FloatAdd                      10      0.00%     63.64% # Class of executed instruction
system.cpu.op_class::FloatCmp                       0      0.00%     63.64% # Class of executed instruction
system.cpu.op_class::FloatCvt                       0      0.00%     63.64% # Class of executed instruction
system.cpu.op_class::FloatMult                      0      0.00%     63.64% # Class of executed instruction
system.cpu.op_class::FloatMultAcc                   0      0.00%     63.64% # Class of executed instruction
system.cpu.op_class::FloatDiv                       0      0.00%     63.64% # Class of executed instruction
system.cpu.op_class::FloatMisc                      0      0.00%     63.64% # Class of executed instruction
system.cpu.op_class::FloatSqrt                      0      0.00%     63.64% # Class of executed instruction
system.cpu.op_class::SimdAdd                      374      0.00%     63.64% # Class of executed instruction
system.cpu.op_class::SimdAddAcc                     0      0.00%     63.64% # Class of executed instruction
system.cpu.op_class::SimdAlu                       68      0.00%     63.64% # Class of executed instruction
system.cpu.op_class::SimdCmp                        0      0.00%     63.64% # Class of executed instruction
system.cpu.op_class::SimdCvt                      108      0.00%     63.64% # Class of executed instruction
system.cpu.op_class::SimdMisc                     214      0.00%     63.64% # Class of executed instruction
system.cpu.op_class::SimdMult                       0      0.00%     63.64% # Class of executed instruction
system.cpu.op_class::SimdMultAcc                    0      0.00%     63.64% # Class of executed instruction
system.cpu.op_class::SimdShift                    186      0.00%     63.64% # Class of executed instruction
system.cpu.op_class::SimdShiftAcc                   0      0.00%     63.64% # Class of executed instruction
system.cpu.op_class::SimdSqrt                       0      0.00%     63.64% # Class of executed instruction
system.cpu.op_class::SimdFloatAdd                   0      0.00%     63.64% # Class of executed instruction
system.cpu.op_class::SimdFloatAlu                   0      0.00%     63.64% # Class of executed instruction
system.cpu.op_class::SimdFloatCmp                   0      0.00%     63.64% # Class of executed instruction
system.cpu.op_class::SimdFloatCvt                   0      0.00%     63.64% # Class of executed instruction
system.cpu.op_class::SimdFloatDiv                   0      0.00%     63.64% # Class of executed instruction
system.cpu.op_class::SimdFloatMisc                  0      0.00%     63.64% # Class of executed instruction
system.cpu.op_class::SimdFloatMult                  0      0.00%     63.64% # Class of executed instruction
system.cpu.op_class::SimdFloatMultAcc               0      0.00%     63.64% # Class of executed instruction
system.cpu.op_class::SimdFloatSqrt                  0      0.00%     63.64% # Class of executed instruction
system.cpu.op_class::MemRead                 20877677     28.44%     92.08% # Class of executed instruction
system.cpu.op_class::MemWrite                 5816113      7.92%    100.00% # Class of executed instruction
system.cpu.op_class::FloatMemRead                  68      0.00%    100.00% # Class of executed instruction
system.cpu.op_class::FloatMemWrite                427      0.00%    100.00% # Class of executed instruction
system.cpu.op_class::IprAccess                      0      0.00%    100.00% # Class of executed instruction
system.cpu.op_class::InstPrefetch                   0      0.00%    100.00% # Class of executed instruction
system.cpu.op_class::total                   73417858                       # Class of executed instruction
system.cpu.dcache.tags.pwrStateResidencyTicks::UNDEFINED  93425485000                       # Cumulative time (in ticks) in various power states
system.cpu.dcache.tags.tagsinuse           510.081952                       # Cycle average of tags in use
system.cpu.dcache.tags.total_refs            26694291                       # Total number of references to valid blocks.
system.cpu.dcache.tags.sampled_refs             45430                       # Sample count of references to valid blocks.
system.cpu.dcache.tags.avg_refs            587.591702                       # Average number of references to valid blocks.
system.cpu.dcache.tags.warmup_cycle            759000                       # Cycle when the warmup percentage was hit.
system.cpu.dcache.tags.occ_blocks::cpu.data   510.081952                       # Average occupied blocks per requestor
system.cpu.dcache.tags.occ_percent::cpu.data     0.996254                       # Average percentage of cache occupancy
system.cpu.dcache.tags.occ_percent::total     0.996254                       # Average percentage of cache occupancy
system.cpu.dcache.tags.occ_task_id_blocks::1024          512                       # Occupied blocks per task id
system.cpu.dcache.tags.age_task_id_blocks_1024::0           10                       # Occupied blocks per task id
system.cpu.dcache.tags.age_task_id_blocks_1024::1           17                       # Occupied blocks per task id
system.cpu.dcache.tags.age_task_id_blocks_1024::2           33                       # Occupied blocks per task id
system.cpu.dcache.tags.age_task_id_blocks_1024::3          450                       # Occupied blocks per task id
system.cpu.dcache.tags.age_task_id_blocks_1024::4            2                       # Occupied blocks per task id
system.cpu.dcache.tags.occ_task_id_percent::1024            1                       # Percentage of cache occupancy per task id
system.cpu.dcache.tags.tag_accesses          53434012                       # Number of tag accesses
system.cpu.dcache.tags.data_accesses         53434012                       # Number of data accesses
system.cpu.dcache.pwrStateResidencyTicks::UNDEFINED  93425485000                       # Cumulative time (in ticks) in various power states
system.cpu.dcache.ReadReq_hits::cpu.data     20839019                       # number of ReadReq hits
system.cpu.dcache.ReadReq_hits::total        20839019                       # number of ReadReq hits
system.cpu.dcache.WriteReq_hits::cpu.data      5806538                       # number of WriteReq hits
system.cpu.dcache.WriteReq_hits::total        5806538                       # number of WriteReq hits
system.cpu.dcache.demand_hits::cpu.data      26645557                       # number of demand (read+write) hits
system.cpu.dcache.demand_hits::total         26645557                       # number of demand (read+write) hits
system.cpu.dcache.overall_hits::cpu.data     26645557                       # number of overall hits
system.cpu.dcache.overall_hits::total        26645557                       # number of overall hits
system.cpu.dcache.ReadReq_misses::cpu.data        38731                       # number of ReadReq misses
system.cpu.dcache.ReadReq_misses::total         38731                       # number of ReadReq misses
system.cpu.dcache.WriteReq_misses::cpu.data        10003                       # number of WriteReq misses
system.cpu.dcache.WriteReq_misses::total        10003                       # number of WriteReq misses
system.cpu.dcache.demand_misses::cpu.data        48734                       # number of demand (read+write) misses
system.cpu.dcache.demand_misses::total          48734                       # number of demand (read+write) misses
system.cpu.dcache.overall_misses::cpu.data        48734                       # number of overall misses
system.cpu.dcache.overall_misses::total         48734                       # number of overall misses
system.cpu.dcache.ReadReq_miss_latency::cpu.data   5399120500                       # number of ReadReq miss cycles
system.cpu.dcache.ReadReq_miss_latency::total   5399120500                       # number of ReadReq miss cycles
system.cpu.dcache.WriteReq_miss_latency::cpu.data   1390430500                       # number of WriteReq miss cycles
system.cpu.dcache.WriteReq_miss_latency::total   1390430500                       # number of WriteReq miss cycles
system.cpu.dcache.demand_miss_latency::cpu.data   6789551000                       # number of demand (read+write) miss cycles
system.cpu.dcache.demand_miss_latency::total   6789551000                       # number of demand (read+write) miss cycles
system.cpu.dcache.overall_miss_latency::cpu.data   6789551000                       # number of overall miss cycles
system.cpu.dcache.overall_miss_latency::total   6789551000                       # number of overall miss cycles
system.cpu.dcache.ReadReq_accesses::cpu.data     20877750                       # number of ReadReq accesses(hits+misses)
system.cpu.dcache.ReadReq_accesses::total     20877750                       # number of ReadReq accesses(hits+misses)
system.cpu.dcache.WriteReq_accesses::cpu.data      5816541                       # number of WriteReq accesses(hits+misses)
system.cpu.dcache.WriteReq_accesses::total      5816541                       # number of WriteReq accesses(hits+misses)
system.cpu.dcache.demand_accesses::cpu.data     26694291                       # number of demand (read+write) accesses
system.cpu.dcache.demand_accesses::total     26694291                       # number of demand (read+write) accesses
system.cpu.dcache.overall_accesses::cpu.data     26694291                       # number of overall (read+write) accesses
system.cpu.dcache.overall_accesses::total     26694291                       # number of overall (read+write) accesses
system.cpu.dcache.ReadReq_miss_rate::cpu.data     0.001855                       # miss rate for ReadReq accesses
system.cpu.dcache.ReadReq_miss_rate::total     0.001855                       # miss rate for ReadReq accesses
system.cpu.dcache.WriteReq_miss_rate::cpu.data     0.001720                       # miss rate for WriteReq accesses
system.cpu.dcache.WriteReq_miss_rate::total     0.001720                       # miss rate for WriteReq accesses
system.cpu.dcache.demand_miss_rate::cpu.data     0.001826                       # miss rate for demand accesses
system.cpu.dcache.demand_miss_rate::total     0.001826                       # miss rate for demand accesses
system.cpu.dcache.overall_miss_rate::cpu.data     0.001826                       # miss rate for overall accesses
system.cpu.dcache.overall_miss_rate::total     0.001826                       # miss rate for overall accesses
system.cpu.dcache.ReadReq_avg_miss_latency::cpu.data 139400.493145                       # average ReadReq miss latency
system.cpu.dcache.ReadReq_avg_miss_latency::total 139400.493145                       # average ReadReq miss latency
system.cpu.dcache.WriteReq_avg_miss_latency::cpu.data 139001.349595                       # average WriteReq miss latency
system.cpu.dcache.WriteReq_avg_miss_latency::total 139001.349595                       # average WriteReq miss latency
system.cpu.dcache.demand_avg_miss_latency::cpu.data 139318.566093                       # average overall miss latency
system.cpu.dcache.demand_avg_miss_latency::total 139318.566093                       # average overall miss latency
system.cpu.dcache.overall_avg_miss_latency::cpu.data 139318.566093                       # average overall miss latency
system.cpu.dcache.overall_avg_miss_latency::total 139318.566093                       # average overall miss latency
system.cpu.dcache.blocked_cycles::no_mshrs            0                       # number of cycles access was blocked
system.cpu.dcache.blocked_cycles::no_targets            0                       # number of cycles access was blocked
system.cpu.dcache.blocked::no_mshrs                 0                       # number of cycles access was blocked
system.cpu.dcache.blocked::no_targets               0                       # number of cycles access was blocked
system.cpu.dcache.avg_blocked_cycles::no_mshrs          nan                       # average number of cycles each access was blocked
system.cpu.dcache.avg_blocked_cycles::no_targets          nan                       # average number of cycles each access was blocked
system.cpu.dcache.writebacks::writebacks        43448                       # number of writebacks
system.cpu.dcache.writebacks::total             43448                       # number of writebacks
system.cpu.dcache.ReadReq_mshr_misses::cpu.data        38731                       # number of ReadReq MSHR misses
system.cpu.dcache.ReadReq_mshr_misses::total        38731                       # number of ReadReq MSHR misses
system.cpu.dcache.WriteReq_mshr_misses::cpu.data        10003                       # number of WriteReq MSHR misses
system.cpu.dcache.WriteReq_mshr_misses::total        10003                       # number of WriteReq MSHR misses
system.cpu.dcache.demand_mshr_misses::cpu.data        48734                       # number of demand (read+write) MSHR misses
system.cpu.dcache.demand_mshr_misses::total        48734                       # number of demand (read+write) MSHR misses
system.cpu.dcache.overall_mshr_misses::cpu.data        48734                       # number of overall MSHR misses
system.cpu.dcache.overall_mshr_misses::total        48734                       # number of overall MSHR misses
system.cpu.dcache.ReadReq_mshr_miss_latency::cpu.data   5360389500                       # number of ReadReq MSHR miss cycles
system.cpu.dcache.ReadReq_mshr_miss_latency::total   5360389500                       # number of ReadReq MSHR miss cycles
system.cpu.dcache.WriteReq_mshr_miss_latency::cpu.data   1380427500                       # number of WriteReq MSHR miss cycles
system.cpu.dcache.WriteReq_mshr_miss_latency::total   1380427500                       # number of WriteReq MSHR miss cycles
system.cpu.dcache.demand_mshr_miss_latency::cpu.data   6740817000                       # number of demand (read+write) MSHR miss cycles
system.cpu.dcache.demand_mshr_miss_latency::total   6740817000                       # number of demand (read+write) MSHR miss cycles
system.cpu.dcache.overall_mshr_miss_latency::cpu.data   6740817000                       # number of overall MSHR miss cycles
system.cpu.dcache.overall_mshr_miss_latency::total   6740817000                       # number of overall MSHR miss cycles
system.cpu.dcache.ReadReq_mshr_miss_rate::cpu.data     0.001855                       # mshr miss rate for ReadReq accesses
system.cpu.dcache.ReadReq_mshr_miss_rate::total     0.001855                       # mshr miss rate for ReadReq accesses
system.cpu.dcache.WriteReq_mshr_miss_rate::cpu.data     0.001720                       # mshr miss rate for WriteReq accesses
system.cpu.dcache.WriteReq_mshr_miss_rate::total     0.001720                       # mshr miss rate for WriteReq accesses
system.cpu.dcache.demand_mshr_miss_rate::cpu.data     0.001826                       # mshr miss rate for demand accesses
system.cpu.dcache.demand_mshr_miss_rate::total     0.001826                       # mshr miss rate for demand accesses
system.cpu.dcache.overall_mshr_miss_rate::cpu.data     0.001826                       # mshr miss rate for overall accesses
system.cpu.dcache.overall_mshr_miss_rate::total     0.001826                       # mshr miss rate for overall accesses
system.cpu.dcache.ReadReq_avg_mshr_miss_latency::cpu.data 138400.493145                       # average ReadReq mshr miss latency
system.cpu.dcache.ReadReq_avg_mshr_miss_latency::total 138400.493145                       # average ReadReq mshr miss latency
system.cpu.dcache.WriteReq_avg_mshr_miss_latency::cpu.data 138001.349595                       # average WriteReq mshr miss latency
system.cpu.dcache.WriteReq_avg_mshr_miss_latency::total 138001.349595                       # average WriteReq mshr miss latency
system.cpu.dcache.demand_avg_mshr_miss_latency::cpu.data 138318.566093                       # average overall mshr miss latency
system.cpu.dcache.demand_avg_mshr_miss_latency::total 138318.566093                       # average overall mshr miss latency
system.cpu.dcache.overall_avg_mshr_miss_latency::cpu.data 138318.566093                       # average overall mshr miss latency
system.cpu.dcache.overall_avg_mshr_miss_latency::total 138318.566093                       # average overall mshr miss latency
system.cpu.dcache.replacements                  44918                       # number of replacements
system.cpu.dtb_walker_cache.tags.pwrStateResidencyTicks::UNDEFINED  93425485000                       # Cumulative time (in ticks) in various power states
system.cpu.dtb_walker_cache.tags.tagsinuse            0                       # Cycle average of tags in use
system.cpu.dtb_walker_cache.tags.total_refs            0                       # Total number of references to valid blocks.
system.cpu.dtb_walker_cache.tags.sampled_refs            0                       # Sample count of references to valid blocks.
system.cpu.dtb_walker_cache.tags.avg_refs          nan                       # Average number of references to valid blocks.
system.cpu.dtb_walker_cache.tags.warmup_cycle            0                       # Cycle when the warmup percentage was hit.
system.cpu.dtb_walker_cache.tags.tag_accesses            0                       # Number of tag accesses
system.cpu.dtb_walker_cache.tags.data_accesses            0                       # Number of data accesses
system.cpu.dtb_walker_cache.pwrStateResidencyTicks::UNDEFINED  93425485000                       # Cumulative time (in ticks) in various power states
system.cpu.dtb_walker_cache.blocked_cycles::no_mshrs            0                       # number of cycles access was blocked
system.cpu.dtb_walker_cache.blocked_cycles::no_targets            0                       # number of cycles access was blocked
system.cpu.dtb_walker_cache.blocked::no_mshrs            0                       # number of cycles access was blocked
system.cpu.dtb_walker_cache.blocked::no_targets            0                       # number of cycles access was blocked
system.cpu.dtb_walker_cache.avg_blocked_cycles::no_mshrs          nan                       # average number of cycles each access was blocked
system.cpu.dtb_walker_cache.avg_blocked_cycles::no_targets          nan                       # average number of cycles each access was blocked
system.cpu.dtb_walker_cache.replacements            0                       # number of replacements
system.cpu.icache.tags.pwrStateResidencyTicks::UNDEFINED  93425485000                       # Cumulative time (in ticks) in various power states
system.cpu.icache.tags.tagsinuse           279.281139                       # Cycle average of tags in use
system.cpu.icache.tags.total_refs            59916902                       # Total number of references to valid blocks.
system.cpu.icache.tags.sampled_refs               354                       # Sample count of references to valid blocks.
system.cpu.icache.tags.avg_refs          169256.785311                       # Average number of references to valid blocks.
system.cpu.icache.tags.warmup_cycle            439000                       # Cycle when the warmup percentage was hit.
system.cpu.icache.tags.occ_blocks::cpu.inst   279.281139                       # Average occupied blocks per requestor
system.cpu.icache.tags.occ_percent::cpu.inst     0.545471                       # Average percentage of cache occupancy
system.cpu.icache.tags.occ_percent::total     0.545471                       # Average percentage of cache occupancy
system.cpu.icache.tags.occ_task_id_blocks::1024          308                       # Occupied blocks per task id
system.cpu.icache.tags.age_task_id_blocks_1024::0           11                       # Occupied blocks per task id
system.cpu.icache.tags.age_task_id_blocks_1024::1           27                       # Occupied blocks per task id
system.cpu.icache.tags.age_task_id_blocks_1024::4          270                       # Occupied blocks per task id
system.cpu.icache.tags.occ_task_id_percent::1024     0.601562                       # Percentage of cache occupancy per task id
system.cpu.icache.tags.tag_accesses         119834158                       # Number of tag accesses
system.cpu.icache.tags.data_accesses        119834158                       # Number of data accesses
system.cpu.icache.pwrStateResidencyTicks::UNDEFINED  93425485000                       # Cumulative time (in ticks) in various power states
system.cpu.icache.ReadReq_hits::cpu.inst     59916548                       # number of ReadReq hits
system.cpu.icache.ReadReq_hits::total        59916548                       # number of ReadReq hits
system.cpu.icache.demand_hits::cpu.inst      59916548                       # number of demand (read+write) hits
system.cpu.icache.demand_hits::total         59916548                       # number of demand (read+write) hits
system.cpu.icache.overall_hits::cpu.inst     59916548                       # number of overall hits
system.cpu.icache.overall_hits::total        59916548                       # number of overall hits
system.cpu.icache.ReadReq_misses::cpu.inst          354                       # number of ReadReq misses
system.cpu.icache.ReadReq_misses::total           354                       # number of ReadReq misses
system.cpu.icache.demand_misses::cpu.inst          354                       # number of demand (read+write) misses
system.cpu.icache.demand_misses::total            354                       # number of demand (read+write) misses
system.cpu.icache.overall_misses::cpu.inst          354                       # number of overall misses
system.cpu.icache.overall_misses::total           354                       # number of overall misses
system.cpu.icache.ReadReq_miss_latency::cpu.inst     73834000                       # number of ReadReq miss cycles
system.cpu.icache.ReadReq_miss_latency::total     73834000                       # number of ReadReq miss cycles
system.cpu.icache.demand_miss_latency::cpu.inst     73834000                       # number of demand (read+write) miss cycles
system.cpu.icache.demand_miss_latency::total     73834000                       # number of demand (read+write) miss cycles
system.cpu.icache.overall_miss_latency::cpu.inst     73834000                       # number of overall miss cycles
system.cpu.icache.overall_miss_latency::total     73834000                       # number of overall miss cycles
system.cpu.icache.ReadReq_accesses::cpu.inst     59916902                       # number of ReadReq accesses(hits+misses)
system.cpu.icache.ReadReq_accesses::total     59916902                       # number of ReadReq accesses(hits+misses)
system.cpu.icache.demand_accesses::cpu.inst     59916902                       # number of demand (read+write) accesses
system.cpu.icache.demand_accesses::total     59916902                       # number of demand (read+write) accesses
system.cpu.icache.overall_accesses::cpu.inst     59916902                       # number of overall (read+write) accesses
system.cpu.icache.overall_accesses::total     59916902                       # number of overall (read+write) accesses
system.cpu.icache.ReadReq_miss_rate::cpu.inst     0.000006                       # miss rate for ReadReq accesses
system.cpu.icache.ReadReq_miss_rate::total     0.000006                       # miss rate for ReadReq accesses
system.cpu.icache.demand_miss_rate::cpu.inst     0.000006                       # miss rate for demand accesses
system.cpu.icache.demand_miss_rate::total     0.000006                       # miss rate for demand accesses
system.cpu.icache.overall_miss_rate::cpu.inst     0.000006                       # miss rate for overall accesses
system.cpu.icache.overall_miss_rate::total     0.000006                       # miss rate for overall accesses
system.cpu.icache.ReadReq_avg_miss_latency::cpu.inst 208570.621469                       # average ReadReq miss latency
system.cpu.icache.ReadReq_avg_miss_latency::total 208570.621469                       # average ReadReq miss latency
system.cpu.icache.demand_avg_miss_latency::cpu.inst 208570.621469                       # average overall miss latency
system.cpu.icache.demand_avg_miss_latency::total 208570.621469                       # average overall miss latency
system.cpu.icache.overall_avg_miss_latency::cpu.inst 208570.621469                       # average overall miss latency
system.cpu.icache.overall_avg_miss_latency::total 208570.621469                       # average overall miss latency
system.cpu.icache.blocked_cycles::no_mshrs            0                       # number of cycles access was blocked
system.cpu.icache.blocked_cycles::no_targets            0                       # number of cycles access was blocked
system.cpu.icache.blocked::no_mshrs                 0                       # number of cycles access was blocked
system.cpu.icache.blocked::no_targets               0                       # number of cycles access was blocked
system.cpu.icache.avg_blocked_cycles::no_mshrs          nan                       # average number of cycles each access was blocked
system.cpu.icache.avg_blocked_cycles::no_targets          nan                       # average number of cycles each access was blocked
system.cpu.icache.writebacks::writebacks           46                       # number of writebacks
system.cpu.icache.writebacks::total                46                       # number of writebacks
system.cpu.icache.ReadReq_mshr_misses::cpu.inst          354                       # number of ReadReq MSHR misses
system.cpu.icache.ReadReq_mshr_misses::total          354                       # number of ReadReq MSHR misses
system.cpu.icache.demand_mshr_misses::cpu.inst          354                       # number of demand (read+write) MSHR misses
system.cpu.icache.demand_mshr_misses::total          354                       # number of demand (read+write) MSHR misses
system.cpu.icache.overall_mshr_misses::cpu.inst          354                       # number of overall MSHR misses
system.cpu.icache.overall_mshr_misses::total          354                       # number of overall MSHR misses
system.cpu.icache.ReadReq_mshr_miss_latency::cpu.inst     73480000                       # number of ReadReq MSHR miss cycles
system.cpu.icache.ReadReq_mshr_miss_latency::total     73480000                       # number of ReadReq MSHR miss cycles
system.cpu.icache.demand_mshr_miss_latency::cpu.inst     73480000                       # number of demand (read+write) MSHR miss cycles
system.cpu.icache.demand_mshr_miss_latency::total     73480000                       # number of demand (read+write) MSHR miss cycles
system.cpu.icache.overall_mshr_miss_latency::cpu.inst     73480000                       # number of overall MSHR miss cycles
system.cpu.icache.overall_mshr_miss_latency::total     73480000                       # number of overall MSHR miss cycles
system.cpu.icache.ReadReq_mshr_miss_rate::cpu.inst     0.000006                       # mshr miss rate for ReadReq accesses
system.cpu.icache.ReadReq_mshr_miss_rate::total     0.000006                       # mshr miss rate for ReadReq accesses
system.cpu.icache.demand_mshr_miss_rate::cpu.inst     0.000006                       # mshr miss rate for demand accesses
system.cpu.icache.demand_mshr_miss_rate::total     0.000006                       # mshr miss rate for demand accesses
system.cpu.icache.overall_mshr_miss_rate::cpu.inst     0.000006                       # mshr miss rate for overall accesses
system.cpu.icache.overall_mshr_miss_rate::total     0.000006                       # mshr miss rate for overall accesses
system.cpu.icache.ReadReq_avg_mshr_miss_latency::cpu.inst 207570.621469                       # average ReadReq mshr miss latency
system.cpu.icache.ReadReq_avg_mshr_miss_latency::total 207570.621469                       # average ReadReq mshr miss latency
system.cpu.icache.demand_avg_mshr_miss_latency::cpu.inst 207570.621469                       # average overall mshr miss latency
system.cpu.icache.demand_avg_mshr_miss_latency::total 207570.621469                       # average overall mshr miss latency
system.cpu.icache.overall_avg_mshr_miss_latency::cpu.inst 207570.621469                       # average overall mshr miss latency
system.cpu.icache.overall_avg_mshr_miss_latency::total 207570.621469                       # average overall mshr miss latency
system.cpu.icache.replacements                     46                       # number of replacements
system.cpu.itb_walker_cache.tags.pwrStateResidencyTicks::UNDEFINED  93425485000                       # Cumulative time (in ticks) in various power states
system.cpu.itb_walker_cache.tags.tagsinuse            0                       # Cycle average of tags in use
system.cpu.itb_walker_cache.tags.total_refs            0                       # Total number of references to valid blocks.
system.cpu.itb_walker_cache.tags.sampled_refs            0                       # Sample count of references to valid blocks.
system.cpu.itb_walker_cache.tags.avg_refs          nan                       # Average number of references to valid blocks.
system.cpu.itb_walker_cache.tags.warmup_cycle            0                       # Cycle when the warmup percentage was hit.
system.cpu.itb_walker_cache.tags.tag_accesses            0                       # Number of tag accesses
system.cpu.itb_walker_cache.tags.data_accesses            0                       # Number of data accesses
system.cpu.itb_walker_cache.pwrStateResidencyTicks::UNDEFINED  93425485000                       # Cumulative time (in ticks) in various power states
system.cpu.itb_walker_cache.blocked_cycles::no_mshrs            0                       # number of cycles access was blocked
system.cpu.itb_walker_cache.blocked_cycles::no_targets            0                       # number of cycles access was blocked
system.cpu.itb_walker_cache.blocked::no_mshrs            0                       # number of cycles access was blocked
system.cpu.itb_walker_cache.blocked::no_targets            0                       # number of cycles access was blocked
system.cpu.itb_walker_cache.avg_blocked_cycles::no_mshrs          nan                       # average number of cycles each access was blocked
system.cpu.itb_walker_cache.avg_blocked_cycles::no_targets          nan                       # average number of cycles each access was blocked
system.cpu.itb_walker_cache.replacements            0                       # number of replacements
system.l2.tags.pwrStateResidencyTicks::UNDEFINED  93425485000                       # Cumulative time (in ticks) in various power states
system.l2.tags.tagsinuse                  2019.849893                       # Cycle average of tags in use
system.l2.tags.total_refs                       94052                       # Total number of references to valid blocks.
system.l2.tags.sampled_refs                     24185                       # Sample count of references to valid blocks.
system.l2.tags.avg_refs                      3.888857                       # Average number of references to valid blocks.
system.l2.tags.warmup_cycle                    428500                       # Cycle when the warmup percentage was hit.
system.l2.tags.occ_blocks::writebacks        1.400803                       # Average occupied blocks per requestor
system.l2.tags.occ_blocks::cpu.inst         10.829051                       # Average occupied blocks per requestor
system.l2.tags.occ_blocks::cpu.data       2007.620039                       # Average occupied blocks per requestor
system.l2.tags.occ_percent::writebacks       0.000684                       # Average percentage of cache occupancy
system.l2.tags.occ_percent::cpu.inst         0.005288                       # Average percentage of cache occupancy
system.l2.tags.occ_percent::cpu.data         0.980283                       # Average percentage of cache occupancy
system.l2.tags.occ_percent::total            0.986255                       # Average percentage of cache occupancy
system.l2.tags.occ_task_id_blocks::1024          2048                       # Occupied blocks per task id
system.l2.tags.age_task_id_blocks_1024::0           26                       # Occupied blocks per task id
system.l2.tags.age_task_id_blocks_1024::1           48                       # Occupied blocks per task id
system.l2.tags.age_task_id_blocks_1024::2           33                       # Occupied blocks per task id
system.l2.tags.age_task_id_blocks_1024::3           59                       # Occupied blocks per task id
system.l2.tags.age_task_id_blocks_1024::4         1882                       # Occupied blocks per task id
system.l2.tags.occ_task_id_percent::1024            1                       # Percentage of cache occupancy per task id
system.l2.tags.tag_accesses                    776601                       # Number of tag accesses
system.l2.tags.data_accesses                   776601                       # Number of data accesses
system.l2.pwrStateResidencyTicks::UNDEFINED  93425485000                       # Cumulative time (in ticks) in various power states
system.l2.WritebackDirty_hits::writebacks        43448                       # number of WritebackDirty hits
system.l2.WritebackDirty_hits::total            43448                       # number of WritebackDirty hits
system.l2.WritebackClean_hits::writebacks           46                       # number of WritebackClean hits
system.l2.WritebackClean_hits::total               46                       # number of WritebackClean hits
system.l2.UpgradeReq_hits::cpu.data              3304                       # number of UpgradeReq hits
system.l2.UpgradeReq_hits::total                 3304                       # number of UpgradeReq hits
system.l2.ReadExReq_hits::cpu.data                258                       # number of ReadExReq hits
system.l2.ReadExReq_hits::total                   258                       # number of ReadExReq hits
system.l2.ReadSharedReq_hits::cpu.data          21365                       # number of ReadSharedReq hits
system.l2.ReadSharedReq_hits::total             21365                       # number of ReadSharedReq hits
system.l2.demand_hits::cpu.data                 21623                       # number of demand (read+write) hits
system.l2.demand_hits::total                    21623                       # number of demand (read+write) hits
system.l2.overall_hits::cpu.data                21623                       # number of overall hits
system.l2.overall_hits::total                   21623                       # number of overall hits
system.l2.ReadExReq_misses::cpu.data             6441                       # number of ReadExReq misses
system.l2.ReadExReq_misses::total                6441                       # number of ReadExReq misses
system.l2.ReadCleanReq_misses::cpu.inst           354                       # number of ReadCleanReq misses
system.l2.ReadCleanReq_misses::total              354                       # number of ReadCleanReq misses
system.l2.ReadSharedReq_misses::cpu.data        17366                       # number of ReadSharedReq misses
system.l2.ReadSharedReq_misses::total           17366                       # number of ReadSharedReq misses
system.l2.demand_misses::cpu.inst                 354                       # number of demand (read+write) misses
system.l2.demand_misses::cpu.data               23807                       # number of demand (read+write) misses
system.l2.demand_misses::total                  24161                       # number of demand (read+write) misses
system.l2.overall_misses::cpu.inst                354                       # number of overall misses
system.l2.overall_misses::cpu.data              23807                       # number of overall misses
system.l2.overall_misses::total                 24161                       # number of overall misses
system.l2.ReadExReq_miss_latency::cpu.data   1328021000                       # number of ReadExReq miss cycles
system.l2.ReadExReq_miss_latency::total    1328021000                       # number of ReadExReq miss cycles
system.l2.ReadCleanReq_miss_latency::cpu.inst     72947000                       # number of ReadCleanReq miss cycles
system.l2.ReadCleanReq_miss_latency::total     72947000                       # number of ReadCleanReq miss cycles
system.l2.ReadSharedReq_miss_latency::cpu.data   5077960000                       # number of ReadSharedReq miss cycles
system.l2.ReadSharedReq_miss_latency::total   5077960000                       # number of ReadSharedReq miss cycles
system.l2.demand_miss_latency::cpu.inst      72947000                       # number of demand (read+write) miss cycles
system.l2.demand_miss_latency::cpu.data    6405981000                       # number of demand (read+write) miss cycles
system.l2.demand_miss_latency::total       6478928000                       # number of demand (read+write) miss cycles
system.l2.overall_miss_latency::cpu.inst     72947000                       # number of overall miss cycles
system.l2.overall_miss_latency::cpu.data   6405981000                       # number of overall miss cycles
system.l2.overall_miss_latency::total      6478928000                       # number of overall miss cycles
system.l2.WritebackDirty_accesses::writebacks        43448                       # number of WritebackDirty accesses(hits+misses)
system.l2.WritebackDirty_accesses::total        43448                       # number of WritebackDirty accesses(hits+misses)
system.l2.WritebackClean_accesses::writebacks           46                       # number of WritebackClean accesses(hits+misses)
system.l2.WritebackClean_accesses::total           46                       # number of WritebackClean accesses(hits+misses)
system.l2.UpgradeReq_accesses::cpu.data          3304                       # number of UpgradeReq accesses(hits+misses)
system.l2.UpgradeReq_accesses::total             3304                       # number of UpgradeReq accesses(hits+misses)
system.l2.ReadExReq_accesses::cpu.data           6699                       # number of ReadExReq accesses(hits+misses)
system.l2.ReadExReq_accesses::total              6699                       # number of ReadExReq accesses(hits+misses)
system.l2.ReadCleanReq_accesses::cpu.inst          354                       # number of ReadCleanReq accesses(hits+misses)
system.l2.ReadCleanReq_accesses::total            354                       # number of ReadCleanReq accesses(hits+misses)
system.l2.ReadSharedReq_accesses::cpu.data        38731                       # number of ReadSharedReq accesses(hits+misses)
system.l2.ReadSharedReq_accesses::total         38731                       # number of ReadSharedReq accesses(hits+misses)
system.l2.demand_accesses::cpu.inst               354                       # number of demand (read+write) accesses
system.l2.demand_accesses::cpu.data             45430                       # number of demand (read+write) accesses
system.l2.demand_accesses::total                45784                       # number of demand (read+write) accesses
system.l2.overall_accesses::cpu.inst              354                       # number of overall (read+write) accesses
system.l2.overall_accesses::cpu.data            45430                       # number of overall (read+write) accesses
system.l2.overall_accesses::total               45784                       # number of overall (read+write) accesses
system.l2.ReadExReq_miss_rate::cpu.data      0.961487                       # miss rate for ReadExReq accesses
system.l2.ReadExReq_miss_rate::total         0.961487                       # miss rate for ReadExReq accesses
system.l2.ReadCleanReq_miss_rate::cpu.inst            1                       # miss rate for ReadCleanReq accesses
system.l2.ReadCleanReq_miss_rate::total             1                       # miss rate for ReadCleanReq accesses
system.l2.ReadSharedReq_miss_rate::cpu.data     0.448375                       # miss rate for ReadSharedReq accesses
system.l2.ReadSharedReq_miss_rate::total     0.448375                       # miss rate for ReadSharedReq accesses
system.l2.demand_miss_rate::cpu.inst                1                       # miss rate for demand accesses
system.l2.demand_miss_rate::cpu.data         0.524037                       # miss rate for demand accesses
system.l2.demand_miss_rate::total            0.527717                       # miss rate for demand accesses
system.l2.overall_miss_rate::cpu.inst               1                       # miss rate for overall accesses
system.l2.overall_miss_rate::cpu.data        0.524037                       # miss rate for overall accesses
system.l2.overall_miss_rate::total           0.527717                       # miss rate for overall accesses
system.l2.ReadExReq_avg_miss_latency::cpu.data 206182.425089                       # average ReadExReq miss latency
system.l2.ReadExReq_avg_miss_latency::total 206182.425089                       # average ReadExReq miss latency
system.l2.ReadCleanReq_avg_miss_latency::cpu.inst 206064.971751                       # average ReadCleanReq miss latency
system.l2.ReadCleanReq_avg_miss_latency::total 206064.971751                       # average ReadCleanReq miss latency
system.l2.ReadSharedReq_avg_miss_latency::cpu.data 292408.153864                       # average ReadSharedReq miss latency
system.l2.ReadSharedReq_avg_miss_latency::total 292408.153864                       # average ReadSharedReq miss latency
system.l2.demand_avg_miss_latency::cpu.inst 206064.971751                       # average overall miss latency
system.l2.demand_avg_miss_latency::cpu.data 269079.724451                       # average overall miss latency
system.l2.demand_avg_miss_latency::total 268156.450478                       # average overall miss latency
system.l2.overall_avg_miss_latency::cpu.inst 206064.971751                       # average overall miss latency
system.l2.overall_avg_miss_latency::cpu.data 269079.724451                       # average overall miss latency
system.l2.overall_avg_miss_latency::total 268156.450478                       # average overall miss latency
system.l2.blocked_cycles::no_mshrs                  0                       # number of cycles access was blocked
system.l2.blocked_cycles::no_targets                0                       # number of cycles access was blocked
system.l2.blocked::no_mshrs                         0                       # number of cycles access was blocked
system.l2.blocked::no_targets                       0                       # number of cycles access was blocked
system.l2.avg_blocked_cycles::no_mshrs            nan                       # average number of cycles each access was blocked
system.l2.avg_blocked_cycles::no_targets          nan                       # average number of cycles each access was blocked
system.l2.writebacks::writebacks                21333                       # number of writebacks
system.l2.writebacks::total                     21333                       # number of writebacks
system.l2.ReadExReq_mshr_misses::cpu.data         6441                       # number of ReadExReq MSHR misses
system.l2.ReadExReq_mshr_misses::total           6441                       # number of ReadExReq MSHR misses
system.l2.ReadCleanReq_mshr_misses::cpu.inst          354                       # number of ReadCleanReq MSHR misses
system.l2.ReadCleanReq_mshr_misses::total          354                       # number of ReadCleanReq MSHR misses
system.l2.ReadSharedReq_mshr_misses::cpu.data        17366                       # number of ReadSharedReq MSHR misses
system.l2.ReadSharedReq_mshr_misses::total        17366                       # number of ReadSharedReq MSHR misses
system.l2.demand_mshr_misses::cpu.inst            354                       # number of demand (read+write) MSHR misses
system.l2.demand_mshr_misses::cpu.data          23807                       # number of demand (read+write) MSHR misses
system.l2.demand_mshr_misses::total             24161                       # number of demand (read+write) MSHR misses
system.l2.overall_mshr_misses::cpu.inst           354                       # number of overall MSHR misses
system.l2.overall_mshr_misses::cpu.data         23807                       # number of overall MSHR misses
system.l2.overall_mshr_misses::total            24161                       # number of overall MSHR misses
system.l2.ReadExReq_mshr_miss_latency::cpu.data   1263611000                       # number of ReadExReq MSHR miss cycles
system.l2.ReadExReq_mshr_miss_latency::total   1263611000                       # number of ReadExReq MSHR miss cycles
system.l2.ReadCleanReq_mshr_miss_latency::cpu.inst     69407000                       # number of ReadCleanReq MSHR miss cycles
system.l2.ReadCleanReq_mshr_miss_latency::total     69407000                       # number of ReadCleanReq MSHR miss cycles
system.l2.ReadSharedReq_mshr_miss_latency::cpu.data   4904300000                       # number of ReadSharedReq MSHR miss cycles
system.l2.ReadSharedReq_mshr_miss_latency::total   4904300000                       # number of ReadSharedReq MSHR miss cycles
system.l2.demand_mshr_miss_latency::cpu.inst     69407000                       # number of demand (read+write) MSHR miss cycles
system.l2.demand_mshr_miss_latency::cpu.data   6167911000                       # number of demand (read+write) MSHR miss cycles
system.l2.demand_mshr_miss_latency::total   6237318000                       # number of demand (read+write) MSHR miss cycles
system.l2.overall_mshr_miss_latency::cpu.inst     69407000                       # number of overall MSHR miss cycles
system.l2.overall_mshr_miss_latency::cpu.data   6167911000                       # number of overall MSHR miss cycles
system.l2.overall_mshr_miss_latency::total   6237318000                       # number of overall MSHR miss cycles
system.l2.ReadExReq_mshr_miss_rate::cpu.data     0.961487                       # mshr miss rate for ReadExReq accesses
system.l2.ReadExReq_mshr_miss_rate::total     0.961487                       # mshr miss rate for ReadExReq accesses
system.l2.ReadCleanReq_mshr_miss_rate::cpu.inst            1                       # mshr miss rate for ReadCleanReq accesses
system.l2.ReadCleanReq_mshr_miss_rate::total            1                       # mshr miss rate for ReadCleanReq accesses
system.l2.ReadSharedReq_mshr_miss_rate::cpu.data     0.448375                       # mshr miss rate for ReadSharedReq accesses
system.l2.ReadSharedReq_mshr_miss_rate::total     0.448375                       # mshr miss rate for ReadSharedReq accesses
system.l2.demand_mshr_miss_rate::cpu.inst            1                       # mshr miss rate for demand accesses
system.l2.demand_mshr_miss_rate::cpu.data     0.524037                       # mshr miss rate for demand accesses
system.l2.demand_mshr_miss_rate::total       0.527717                       # mshr miss rate for demand accesses
system.l2.overall_mshr_miss_rate::cpu.inst            1                       # mshr miss rate for overall accesses
system.l2.overall_mshr_miss_rate::cpu.data     0.524037                       # mshr miss rate for overall accesses
system.l2.overall_mshr_miss_rate::total      0.527717                       # mshr miss rate for overall accesses
system.l2.ReadExReq_avg_mshr_miss_latency::cpu.data 196182.425089                       # average ReadExReq mshr miss latency
system.l2.ReadExReq_avg_mshr_miss_latency::total 196182.425089                       # average ReadExReq mshr miss latency
system.l2.ReadCleanReq_avg_mshr_miss_latency::cpu.inst 196064.971751                       # average ReadCleanReq mshr miss latency
system.l2.ReadCleanReq_avg_mshr_miss_latency::total 196064.971751                       # average ReadCleanReq mshr miss latency
system.l2.ReadSharedReq_avg_mshr_miss_latency::cpu.data 282408.153864                       # average ReadSharedReq mshr miss latency
system.l2.ReadSharedReq_avg_mshr_miss_latency::total 282408.153864                       # average ReadSharedReq mshr miss latency
system.l2.demand_avg_mshr_miss_latency::cpu.inst 196064.971751                       # average overall mshr miss latency
system.l2.demand_avg_mshr_miss_latency::cpu.data 259079.724451                       # average overall mshr miss latency
system.l2.demand_avg_mshr_miss_latency::total 258156.450478                       # average overall mshr miss latency
system.l2.overall_avg_mshr_miss_latency::cpu.inst 196064.971751                       # average overall mshr miss latency
system.l2.overall_avg_mshr_miss_latency::cpu.data 259079.724451                       # average overall mshr miss latency
system.l2.overall_avg_mshr_miss_latency::total 258156.450478                       # average overall mshr miss latency
system.l2.replacements                          22137                       # number of replacements
system.l3.tags.pwrStateResidencyTicks::UNDEFINED  93425485000                       # Cumulative time (in ticks) in various power states
system.l3.tags.tagsinuse                  2018.087259                       # Cycle average of tags in use
system.l3.tags.total_refs                       45497                       # Total number of references to valid blocks.
system.l3.tags.sampled_refs                     39439                       # Sample count of references to valid blocks.
system.l3.tags.avg_refs                      1.153604                       # Average number of references to valid blocks.
system.l3.tags.warmup_cycle                    418000                       # Cycle when the warmup percentage was hit.
system.l3.tags.occ_blocks::writebacks     1625.447218                       # Average occupied blocks per requestor
system.l3.tags.occ_blocks::cpu.inst         10.878490                       # Average occupied blocks per requestor
system.l3.tags.occ_blocks::cpu.data        381.761551                       # Average occupied blocks per requestor
system.l3.tags.occ_percent::writebacks       0.793675                       # Average percentage of cache occupancy
system.l3.tags.occ_percent::cpu.inst         0.005312                       # Average percentage of cache occupancy
system.l3.tags.occ_percent::cpu.data         0.186407                       # Average percentage of cache occupancy
system.l3.tags.occ_percent::total            0.985394                       # Average percentage of cache occupancy
system.l3.tags.occ_task_id_blocks::1024          2048                       # Occupied blocks per task id
system.l3.tags.age_task_id_blocks_1024::0           22                       # Occupied blocks per task id
system.l3.tags.age_task_id_blocks_1024::1           50                       # Occupied blocks per task id
system.l3.tags.age_task_id_blocks_1024::2           23                       # Occupied blocks per task id
system.l3.tags.age_task_id_blocks_1024::3           42                       # Occupied blocks per task id
system.l3.tags.age_task_id_blocks_1024::4         1911                       # Occupied blocks per task id
system.l3.tags.occ_task_id_percent::1024            1                       # Percentage of cache occupancy per task id
system.l3.tags.tag_accesses                    223455                       # Number of tag accesses
system.l3.tags.data_accesses                   223455                       # Number of data accesses
system.l3.pwrStateResidencyTicks::UNDEFINED  93425485000                       # Cumulative time (in ticks) in various power states
system.l3.WritebackDirty_hits::writebacks        21333                       # number of WritebackDirty hits
system.l3.WritebackDirty_hits::total            21333                       # number of WritebackDirty hits
system.l3.ReadExReq_hits::cpu.data                 24                       # number of ReadExReq hits
system.l3.ReadExReq_hits::total                    24                       # number of ReadExReq hits
system.l3.ReadSharedReq_hits::cpu.data           3748                       # number of ReadSharedReq hits
system.l3.ReadSharedReq_hits::total              3748                       # number of ReadSharedReq hits
system.l3.demand_hits::cpu.data                  3772                       # number of demand (read+write) hits
system.l3.demand_hits::total                     3772                       # number of demand (read+write) hits
system.l3.overall_hits::cpu.data                 3772                       # number of overall hits
system.l3.overall_hits::total                    3772                       # number of overall hits
system.l3.ReadExReq_misses::cpu.data             6417                       # number of ReadExReq misses
system.l3.ReadExReq_misses::total                6417                       # number of ReadExReq misses
system.l3.ReadSharedReq_misses::cpu.inst          354                       # number of ReadSharedReq misses
system.l3.ReadSharedReq_misses::cpu.data        13618                       # number of ReadSharedReq misses
system.l3.ReadSharedReq_misses::total           13972                       # number of ReadSharedReq misses
system.l3.demand_misses::cpu.inst                 354                       # number of demand (read+write) misses
system.l3.demand_misses::cpu.data               20035                       # number of demand (read+write) misses
system.l3.demand_misses::total                  20389                       # number of demand (read+write) misses
system.l3.overall_misses::cpu.inst                354                       # number of overall misses
system.l3.overall_misses::cpu.data              20035                       # number of overall misses
system.l3.overall_misses::total                 20389                       # number of overall misses
system.l3.ReadExReq_miss_latency::cpu.data   1192508000                       # number of ReadExReq miss cycles
system.l3.ReadExReq_miss_latency::total    1192508000                       # number of ReadExReq miss cycles
system.l3.ReadSharedReq_miss_latency::cpu.inst     65513000                       # number of ReadSharedReq miss cycles
system.l3.ReadSharedReq_miss_latency::cpu.data   4658632000                       # number of ReadSharedReq miss cycles
system.l3.ReadSharedReq_miss_latency::total   4724145000                       # number of ReadSharedReq miss cycles
system.l3.demand_miss_latency::cpu.inst      65513000                       # number of demand (read+write) miss cycles
system.l3.demand_miss_latency::cpu.data    5851140000                       # number of demand (read+write) miss cycles
system.l3.demand_miss_latency::total       5916653000                       # number of demand (read+write) miss cycles
system.l3.overall_miss_latency::cpu.inst     65513000                       # number of overall miss cycles
system.l3.overall_miss_latency::cpu.data   5851140000                       # number of overall miss cycles
system.l3.overall_miss_latency::total      5916653000                       # number of overall miss cycles
system.l3.WritebackDirty_accesses::writebacks        21333                       # number of WritebackDirty accesses(hits+misses)
system.l3.WritebackDirty_accesses::total        21333                       # number of WritebackDirty accesses(hits+misses)
system.l3.ReadExReq_accesses::cpu.data           6441                       # number of ReadExReq accesses(hits+misses)
system.l3.ReadExReq_accesses::total              6441                       # number of ReadExReq accesses(hits+misses)
system.l3.ReadSharedReq_accesses::cpu.inst          354                       # number of ReadSharedReq accesses(hits+misses)
system.l3.ReadSharedReq_accesses::cpu.data        17366                       # number of ReadSharedReq accesses(hits+misses)
system.l3.ReadSharedReq_accesses::total         17720                       # number of ReadSharedReq accesses(hits+misses)
system.l3.demand_accesses::cpu.inst               354                       # number of demand (read+write) accesses
system.l3.demand_accesses::cpu.data             23807                       # number of demand (read+write) accesses
system.l3.demand_accesses::total                24161                       # number of demand (read+write) accesses
system.l3.overall_accesses::cpu.inst              354                       # number of overall (read+write) accesses
system.l3.overall_accesses::cpu.data            23807                       # number of overall (read+write) accesses
system.l3.overall_accesses::total               24161                       # number of overall (read+write) accesses
system.l3.ReadExReq_miss_rate::cpu.data      0.996274                       # miss rate for ReadExReq accesses
system.l3.ReadExReq_miss_rate::total         0.996274                       # miss rate for ReadExReq accesses
system.l3.ReadSharedReq_miss_rate::cpu.inst            1                       # miss rate for ReadSharedReq accesses
system.l3.ReadSharedReq_miss_rate::cpu.data     0.784176                       # miss rate for ReadSharedReq accesses
system.l3.ReadSharedReq_miss_rate::total     0.788488                       # miss rate for ReadSharedReq accesses
system.l3.demand_miss_rate::cpu.inst                1                       # miss rate for demand accesses
system.l3.demand_miss_rate::cpu.data         0.841559                       # miss rate for demand accesses
system.l3.demand_miss_rate::total            0.843881                       # miss rate for demand accesses
system.l3.overall_miss_rate::cpu.inst               1                       # miss rate for overall accesses
system.l3.overall_miss_rate::cpu.data        0.841559                       # miss rate for overall accesses
system.l3.overall_miss_rate::total           0.843881                       # miss rate for overall accesses
system.l3.ReadExReq_avg_miss_latency::cpu.data 185835.748792                       # average ReadExReq miss latency
system.l3.ReadExReq_avg_miss_latency::total 185835.748792                       # average ReadExReq miss latency
system.l3.ReadSharedReq_avg_miss_latency::cpu.inst 185064.971751                       # average ReadSharedReq miss latency
system.l3.ReadSharedReq_avg_miss_latency::cpu.data 342093.699515                       # average ReadSharedReq miss latency
system.l3.ReadSharedReq_avg_miss_latency::total 338115.158889                       # average ReadSharedReq miss latency
system.l3.demand_avg_miss_latency::cpu.inst 185064.971751                       # average overall miss latency
system.l3.demand_avg_miss_latency::cpu.data 292045.919641                       # average overall miss latency
system.l3.demand_avg_miss_latency::total 290188.483986                       # average overall miss latency
system.l3.overall_avg_miss_latency::cpu.inst 185064.971751                       # average overall miss latency
system.l3.overall_avg_miss_latency::cpu.data 292045.919641                       # average overall miss latency
system.l3.overall_avg_miss_latency::total 290188.483986                       # average overall miss latency
system.l3.blocked_cycles::no_mshrs                  0                       # number of cycles access was blocked
system.l3.blocked_cycles::no_targets                0                       # number of cycles access was blocked
system.l3.blocked::no_mshrs                         0                       # number of cycles access was blocked
system.l3.blocked::no_targets                       0                       # number of cycles access was blocked
system.l3.avg_blocked_cycles::no_mshrs            nan                       # average number of cycles each access was blocked
system.l3.avg_blocked_cycles::no_targets          nan                       # average number of cycles each access was blocked
system.l3.writebacks::writebacks                16050                       # number of writebacks
system.l3.writebacks::total                     16050                       # number of writebacks
system.l3.CleanEvict_mshr_misses::writebacks          507                       # number of CleanEvict MSHR misses
system.l3.CleanEvict_mshr_misses::total           507                       # number of CleanEvict MSHR misses
system.l3.ReadExReq_mshr_misses::cpu.data         6417                       # number of ReadExReq MSHR misses
system.l3.ReadExReq_mshr_misses::total           6417                       # number of ReadExReq MSHR misses
system.l3.ReadSharedReq_mshr_misses::cpu.inst          354                       # number of ReadSharedReq MSHR misses
system.l3.ReadSharedReq_mshr_misses::cpu.data        13618                       # number of ReadSharedReq MSHR misses
system.l3.ReadSharedReq_mshr_misses::total        13972                       # number of ReadSharedReq MSHR misses
system.l3.demand_mshr_misses::cpu.inst            354                       # number of demand (read+write) MSHR misses
system.l3.demand_mshr_misses::cpu.data          20035                       # number of demand (read+write) MSHR misses
system.l3.demand_mshr_misses::total             20389                       # number of demand (read+write) MSHR misses
system.l3.overall_mshr_misses::cpu.inst           354                       # number of overall MSHR misses
system.l3.overall_mshr_misses::cpu.data         20035                       # number of overall MSHR misses
system.l3.overall_mshr_misses::total            20389                       # number of overall MSHR misses
system.l3.ReadExReq_mshr_miss_latency::cpu.data   1128338000                       # number of ReadExReq MSHR miss cycles
system.l3.ReadExReq_mshr_miss_latency::total   1128338000                       # number of ReadExReq MSHR miss cycles
system.l3.ReadSharedReq_mshr_miss_latency::cpu.inst     61973000                       # number of ReadSharedReq MSHR miss cycles
system.l3.ReadSharedReq_mshr_miss_latency::cpu.data   4522452000                       # number of ReadSharedReq MSHR miss cycles
system.l3.ReadSharedReq_mshr_miss_latency::total   4584425000                       # number of ReadSharedReq MSHR miss cycles
system.l3.demand_mshr_miss_latency::cpu.inst     61973000                       # number of demand (read+write) MSHR miss cycles
system.l3.demand_mshr_miss_latency::cpu.data   5650790000                       # number of demand (read+write) MSHR miss cycles
system.l3.demand_mshr_miss_latency::total   5712763000                       # number of demand (read+write) MSHR miss cycles
system.l3.overall_mshr_miss_latency::cpu.inst     61973000                       # number of overall MSHR miss cycles
system.l3.overall_mshr_miss_latency::cpu.data   5650790000                       # number of overall MSHR miss cycles
system.l3.overall_mshr_miss_latency::total   5712763000                       # number of overall MSHR miss cycles
system.l3.CleanEvict_mshr_miss_rate::writebacks          inf                       # mshr miss rate for CleanEvict accesses
system.l3.CleanEvict_mshr_miss_rate::total          inf                       # mshr miss rate for CleanEvict accesses
system.l3.ReadExReq_mshr_miss_rate::cpu.data     0.996274                       # mshr miss rate for ReadExReq accesses
system.l3.ReadExReq_mshr_miss_rate::total     0.996274                       # mshr miss rate for ReadExReq accesses
system.l3.ReadSharedReq_mshr_miss_rate::cpu.inst            1                       # mshr miss rate for ReadSharedReq accesses
system.l3.ReadSharedReq_mshr_miss_rate::cpu.data     0.784176                       # mshr miss rate for ReadSharedReq accesses
system.l3.ReadSharedReq_mshr_miss_rate::total     0.788488                       # mshr miss rate for ReadSharedReq accesses
system.l3.demand_mshr_miss_rate::cpu.inst            1                       # mshr miss rate for demand accesses
system.l3.demand_mshr_miss_rate::cpu.data     0.841559                       # mshr miss rate for demand accesses
system.l3.demand_mshr_miss_rate::total       0.843881                       # mshr miss rate for demand accesses
system.l3.overall_mshr_miss_rate::cpu.inst            1                       # mshr miss rate for overall accesses
system.l3.overall_mshr_miss_rate::cpu.data     0.841559                       # mshr miss rate for overall accesses
system.l3.overall_mshr_miss_rate::total      0.843881                       # mshr miss rate for overall accesses
system.l3.ReadExReq_avg_mshr_miss_latency::cpu.data 175835.748792                       # average ReadExReq mshr miss latency
system.l3.ReadExReq_avg_mshr_miss_latency::total 175835.748792                       # average ReadExReq mshr miss latency
system.l3.ReadSharedReq_avg_mshr_miss_latency::cpu.inst 175064.971751                       # average ReadSharedReq mshr miss latency
system.l3.ReadSharedReq_avg_mshr_miss_latency::cpu.data 332093.699515                       # average ReadSharedReq mshr miss latency
system.l3.ReadSharedReq_avg_mshr_miss_latency::total 328115.158889                       # average ReadSharedReq mshr miss latency
system.l3.demand_avg_mshr_miss_latency::cpu.inst 175064.971751                       # average overall mshr miss latency
system.l3.demand_avg_mshr_miss_latency::cpu.data 282045.919641                       # average overall mshr miss latency
system.l3.demand_avg_mshr_miss_latency::total 280188.483986                       # average overall mshr miss latency
system.l3.overall_avg_mshr_miss_latency::cpu.inst 175064.971751                       # average overall mshr miss latency
system.l3.overall_avg_mshr_miss_latency::cpu.data 282045.919641                       # average overall mshr miss latency
system.l3.overall_avg_mshr_miss_latency::total 280188.483986                       # average overall mshr miss latency
system.l3.replacements                          37391                       # number of replacements
system.membus.snoop_filter.tot_requests         39410                       # Total number of requests made to the snoop filter.
system.membus.snoop_filter.hit_single_requests        19021                       # Number of requests hitting in the snoop filter with a single holder of the requested data.
system.membus.snoop_filter.hit_multi_requests            0                       # Number of requests hitting in the snoop filter with multiple (>1) holders of the requested data.
system.membus.snoop_filter.tot_snoops               0                       # Total number of snoops made to the snoop filter.
system.membus.snoop_filter.hit_single_snoops            0                       # Number of snoops hitting in the snoop filter with a single holder of the requested data.
system.membus.snoop_filter.hit_multi_snoops            0                       # Number of snoops hitting in the snoop filter with multiple (>1) holders of the requested data.
system.membus.pwrStateResidencyTicks::UNDEFINED  93425485000                       # Cumulative time (in ticks) in various power states
system.membus.trans_dist::ReadResp              13972                       # Transaction distribution
system.membus.trans_dist::WritebackDirty        16050                       # Transaction distribution
system.membus.trans_dist::CleanEvict              509                       # Transaction distribution
system.membus.trans_dist::ReadExReq              6417                       # Transaction distribution
system.membus.trans_dist::ReadExResp             6417                       # Transaction distribution
system.membus.trans_dist::ReadSharedReq         13972                       # Transaction distribution
system.membus.pkt_count_system.l3.mem_side::system.mem_ctrls.port        57337                       # Packet count per connected master and slave (bytes)
system.membus.pkt_count_system.l3.mem_side::total        57337                       # Packet count per connected master and slave (bytes)
system.membus.pkt_count::total                  57337                       # Packet count per connected master and slave (bytes)
system.membus.pkt_size_system.l3.mem_side::system.mem_ctrls.port      2332096                       # Cumulative packet size per connected master and slave (bytes)
system.membus.pkt_size_system.l3.mem_side::total      2332096                       # Cumulative packet size per connected master and slave (bytes)
system.membus.pkt_size::total                 2332096                       # Cumulative packet size per connected master and slave (bytes)
system.membus.snoops                                0                       # Total snoops (count)
system.membus.snoopTraffic                          0                       # Total snoop traffic (bytes)
system.membus.snoop_fanout::samples             20389                       # Request fanout histogram
system.membus.snoop_fanout::mean                    0                       # Request fanout histogram
system.membus.snoop_fanout::stdev                   0                       # Request fanout histogram
system.membus.snoop_fanout::underflows              0      0.00%      0.00% # Request fanout histogram
system.membus.snoop_fanout::0                   20389    100.00%    100.00% # Request fanout histogram
system.membus.snoop_fanout::1                       0      0.00%    100.00% # Request fanout histogram
system.membus.snoop_fanout::overflows               0      0.00%    100.00% # Request fanout histogram
system.membus.snoop_fanout::min_value               0                       # Request fanout histogram
system.membus.snoop_fanout::max_value               0                       # Request fanout histogram
system.membus.snoop_fanout::total               20389                       # Request fanout histogram
system.membus.reqLayer2.occupancy           103698500                       # Layer occupancy (ticks)
system.membus.reqLayer2.utilization               0.1                       # Layer utilization (%)
system.membus.respLayer1.occupancy          101950000                       # Layer occupancy (ticks)
system.membus.respLayer1.utilization              0.1                       # Layer utilization (%)
system.tol2bus.snoop_filter.tot_requests        94052                       # Total number of requests made to the snoop filter.
system.tol2bus.snoop_filter.hit_single_requests        48268                       # Number of requests hitting in the snoop filter with a single holder of the requested data.
system.tol2bus.snoop_filter.hit_multi_requests            0                       # Number of requests hitting in the snoop filter with multiple (>1) holders of the requested data.
system.tol2bus.snoop_filter.tot_snoops           6149                       # Total number of snoops made to the snoop filter.
system.tol2bus.snoop_filter.hit_single_snoops         6149                       # Number of snoops hitting in the snoop filter with a single holder of the requested data.
system.tol2bus.snoop_filter.hit_multi_snoops            0                       # Number of snoops hitting in the snoop filter with multiple (>1) holders of the requested data.
system.tol2bus.pwrStateResidencyTicks::UNDEFINED  93425485000                       # Cumulative time (in ticks) in various power states
system.tol2bus.trans_dist::ReadResp             39085                       # Transaction distribution
system.tol2bus.trans_dist::WritebackDirty        64781                       # Transaction distribution
system.tol2bus.trans_dist::WritebackClean           46                       # Transaction distribution
system.tol2bus.trans_dist::CleanEvict           23613                       # Transaction distribution
system.tol2bus.trans_dist::UpgradeReq            3304                       # Transaction distribution
system.tol2bus.trans_dist::UpgradeResp           3304                       # Transaction distribution
system.tol2bus.trans_dist::ReadExReq             6699                       # Transaction distribution
system.tol2bus.trans_dist::ReadExResp            6699                       # Transaction distribution
system.tol2bus.trans_dist::ReadCleanReq           354                       # Transaction distribution
system.tol2bus.trans_dist::ReadSharedReq        38731                       # Transaction distribution
system.tol2bus.pkt_count_system.cpu.icache.mem_side::system.l2.cpu_side          754                       # Packet count per connected master and slave (bytes)
system.tol2bus.pkt_count_system.cpu.dcache.mem_side::system.l2.cpu_side       142386                       # Packet count per connected master and slave (bytes)
system.tol2bus.pkt_count::total                143140                       # Packet count per connected master and slave (bytes)
system.tol2bus.pkt_size_system.cpu.icache.mem_side::system.l2.cpu_side        25600                       # Cumulative packet size per connected master and slave (bytes)
system.tol2bus.pkt_size_system.cpu.dcache.mem_side::system.l2.cpu_side      5688192                       # Cumulative packet size per connected master and slave (bytes)
system.tol2bus.pkt_size::total                5713792                       # Cumulative packet size per connected master and slave (bytes)
system.tol2bus.snoops                           43476                       # Total snoops (count)
system.tol2bus.snoopTraffic                   1365312                       # Total snoop traffic (bytes)
system.tol2bus.snoop_fanout::samples            92564                       # Request fanout histogram
system.tol2bus.snoop_fanout::mean            0.066430                       # Request fanout histogram
system.tol2bus.snoop_fanout::stdev           0.249033                       # Request fanout histogram
system.tol2bus.snoop_fanout::underflows             0      0.00%      0.00% # Request fanout histogram
system.tol2bus.snoop_fanout::0                  86415     93.36%     93.36% # Request fanout histogram
system.tol2bus.snoop_fanout::1                   6149      6.64%    100.00% # Request fanout histogram
system.tol2bus.snoop_fanout::2                      0      0.00%    100.00% # Request fanout histogram
system.tol2bus.snoop_fanout::3                      0      0.00%    100.00% # Request fanout histogram
system.tol2bus.snoop_fanout::4                      0      0.00%    100.00% # Request fanout histogram
system.tol2bus.snoop_fanout::overflows              0      0.00%    100.00% # Request fanout histogram
system.tol2bus.snoop_fanout::min_value              0                       # Request fanout histogram
system.tol2bus.snoop_fanout::max_value              1                       # Request fanout histogram
system.tol2bus.snoop_fanout::total              92564                       # Request fanout histogram
system.tol2bus.reqLayer0.occupancy           90520000                       # Layer occupancy (ticks)
system.tol2bus.reqLayer0.utilization              0.1                       # Layer utilization (%)
system.tol2bus.respLayer0.occupancy            531000                       # Layer occupancy (ticks)
system.tol2bus.respLayer0.utilization             0.0                       # Layer utilization (%)
system.tol2bus.respLayer1.occupancy          69797000                       # Layer occupancy (ticks)
system.tol2bus.respLayer1.utilization             0.1                       # Layer utilization (%)
system.tol3bus.snoop_filter.tot_requests        46012                       # Total number of requests made to the snoop filter.
system.tol3bus.snoop_filter.hit_single_requests        21843                       # Number of requests hitting in the snoop filter with a single holder of the requested data.
system.tol3bus.snoop_filter.hit_multi_requests            0                       # Number of requests hitting in the snoop filter with multiple (>1) holders of the requested data.
system.tol3bus.snoop_filter.tot_snoops          21339                       # Total number of snoops made to the snoop filter.
system.tol3bus.snoop_filter.hit_single_snoops        21339                       # Number of snoops hitting in the snoop filter with a single holder of the requested data.
system.tol3bus.snoop_filter.hit_multi_snoops            0                       # Number of snoops hitting in the snoop filter with multiple (>1) holders of the requested data.
system.tol3bus.pwrStateResidencyTicks::UNDEFINED  93425485000                       # Cumulative time (in ticks) in various power states
system.tol3bus.trans_dist::ReadResp             17720                       # Transaction distribution
system.tol3bus.trans_dist::WritebackDirty        37383                       # Transaction distribution
system.tol3bus.trans_dist::CleanEvict           21851                       # Transaction distribution
system.tol3bus.trans_dist::ReadExReq             6441                       # Transaction distribution
system.tol3bus.trans_dist::ReadExResp            6441                       # Transaction distribution
system.tol3bus.trans_dist::ReadSharedReq        17720                       # Transaction distribution
system.tol3bus.pkt_count_system.l2.mem_side::system.l3.cpu_side        70165                       # Packet count per connected master and slave (bytes)
system.tol3bus.pkt_size_system.l2.mem_side::system.l3.cpu_side      2911616                       # Cumulative packet size per connected master and slave (bytes)
system.tol3bus.snoops                           37391                       # Total snoops (count)
system.tol3bus.snoopTraffic                   1027200                       # Total snoop traffic (bytes)
system.tol3bus.snoop_fanout::samples            61560                       # Request fanout histogram
system.tol3bus.snoop_fanout::mean            0.346637                       # Request fanout histogram
system.tol3bus.snoop_fanout::stdev           0.475903                       # Request fanout histogram
system.tol3bus.snoop_fanout::underflows             0      0.00%      0.00% # Request fanout histogram
system.tol3bus.snoop_fanout::0                  40221     65.34%     65.34% # Request fanout histogram
system.tol3bus.snoop_fanout::1                  21339     34.66%    100.00% # Request fanout histogram
system.tol3bus.snoop_fanout::overflows              0      0.00%    100.00% # Request fanout histogram
system.tol3bus.snoop_fanout::min_value              0                       # Request fanout histogram
system.tol3bus.snoop_fanout::max_value              1                       # Request fanout histogram
system.tol3bus.snoop_fanout::total              61560                       # Request fanout histogram
system.tol3bus.reqLayer0.occupancy           44342992                       # Layer occupancy (ticks)
system.tol3bus.reqLayer0.utilization              0.0                       # Layer utilization (%)
system.tol3bus.respLayer0.occupancy          36241508                       # Layer occupancy (ticks)
system.tol3bus.respLayer0.utilization             0.0                       # Layer utilization (%)

---------- End Simulation Statistics   ----------
